5
q = -1.0, confidence = 0.0

 41 40  0  0  0  0  0  0  0  0999 V2000
    1.7476   -0.6204   -2.1796 Si  0  0  0  0  0  0  0  0  0  0  0  0
    2.7885   -1.7986    0.5318 Si  0  0  0  0  0  0  0  0  0  0  0  0
    3.0435    1.2513   -0.0433 Si  0  0  0  0  0  0  0  0  0  0  0  0
    0.0590   -0.0152   -2.2611 O   0  0  0  0  0  0  0  0  0  0  0  0
    2.0395   -0.3194   -0.3966 C   0  0  0  0  0  3  0  0  0  0  0  0
   -0.6551    0.1631   -3.4834 C   0  0  0  0  0  0  0  0  0  0  0  0
   -0.1786    0.9534   -4.1022 H   0  0  0  0  0  0  0  0  0  0  0  0
   -1.6957    0.4593   -3.2399 H   0  0  0  0  0  0  0  0  0  0  0  0
   -0.6757   -0.7780   -4.0752 H   0  0  0  0  0  0  0  0  0  0  0  0
    2.6632    0.2994   -3.5581 C   0  0  0  0  0  0  0  0  0  0  0  0
    2.3689   -0.1086   -4.5472 H   0  0  0  0  0  0  0  0  0  0  0  0
    3.7550    0.1363   -3.4438 H   0  0  0  0  0  0  0  0  0  0  0  0
    2.4862    1.3902   -3.5607 H   0  0  0  0  0  0  0  0  0  0  0  0
    1.6414   -2.4085   -2.8007 C   0  0  0  0  0  0  0  0  0  0  0  0
    1.3091   -3.1260   -2.0279 H   0  0  0  0  0  0  0  0  0  0  0  0
    2.6380   -2.7365   -3.1594 H   0  0  0  0  0  0  0  0  0  0  0  0
    0.9484   -2.4746   -3.6654 H   0  0  0  0  0  0  0  0  0  0  0  0
    1.5583   -3.2142    0.8763 C   0  0  0  0  0  0  0  0  0  0  0  0
    0.8268   -2.8972    1.6471 H   0  0  0  0  0  0  0  0  0  0  0  0
    2.1231   -4.0774    1.2871 H   0  0  0  0  0  0  0  0  0  0  0  0
    0.9976   -3.5676   -0.0105 H   0  0  0  0  0  0  0  0  0  0  0  0
    4.2526   -2.5848   -0.4084 C   0  0  0  0  0  0  0  0  0  0  0  0
    4.7428   -3.3480    0.2325 H   0  0  0  0  0  0  0  0  0  0  0  0
    5.0168   -1.8295   -0.6788 H   0  0  0  0  0  0  0  0  0  0  0  0
    3.9319   -3.0928   -1.3395 H   0  0  0  0  0  0  0  0  0  0  0  0
    3.4413   -1.3650    2.2623 C   0  0  0  0  0  0  0  0  0  0  0  0
    2.6306   -0.9583    2.8996 H   0  0  0  0  0  0  0  0  0  0  0  0
    4.2820   -0.6446    2.2583 H   0  0  0  0  0  0  0  0  0  0  0  0
    3.8061   -2.3019    2.7330 H   0  0  0  0  0  0  0  0  0  0  0  0
    4.9270    0.9883   -0.1880 C   0  0  0  0  0  0  0  0  0  0  0  0
    5.3265    0.2587    0.5430 H   0  0  0  0  0  0  0  0  0  0  0  0
    5.4492    1.9539   -0.0203 H   0  0  0  0  0  0  0  0  0  0  0  0
    5.1969    0.6319   -1.2039 H   0  0  0  0  0  0  0  0  0  0  0  0
    2.7104    1.9824    1.6786 C   0  0  0  0  0  0  0  0  0  0  0  0
    1.6458    2.2642    1.7958 H   0  0  0  0  0  0  0  0  0  0  0  0
    3.3259    2.8981    1.8088 H   0  0  0  0  0  0  0  0  0  0  0  0
    2.9485    1.2830    2.5012 H   0  0  0  0  0  0  0  0  0  0  0  0
    2.7055    2.6954   -1.2592 C   0  0  0  0  0  0  0  0  0  0  0  0
    1.7063    2.6554   -1.7295 H   0  0  0  0  0  0  0  0  0  0  0  0
    3.4605    2.7224   -2.0697 H   0  0  0  0  0  0  0  0  0  0  0  0
    2.7807    3.6539   -0.7050 H   0  0  0  0  0  0  0  0  0  0  0  0
  1  5  1  0  0  0  0
  2 18  1  0  0  0  0
  2 26  1  0  0  0  0
  3 34  1  0  0  0  0
  4  1  1  0  0  0  0
  5  3  1  0  0  0  0
  5  2  1  0  0  0  0
  6  8  1  0  0  0  0
  6  4  1  0  0  0  0
  7  6  1  0  0  0  0
  9  6  1  0  0  0  0
 10 12  1  0  0  0  0
 10  1  1  0  0  0  0
 11 10  1  0  0  0  0
 13 10  1  0  0  0  0
 14  1  1  0  0  0  0
 14 15  1  0  0  0  0
 16 14  1  0  0  0  0
 17 14  1  0  0  0  0
 18 20  1  0  0  0  0
 18 19  1  0  0  0  0
 21 18  1  0  0  0  0
 22 23  1  0  0  0  0
 22  2  1  0  0  0  0
 24 22  1  0  0  0  0
 25 22  1  0  0  0  0
 26 29  1  0  0  0  0
 26 27  1  0  0  0  0
 28 26  1  0  0  0  0
 30  3  1  0  0  0  0
 30 32  1  0  0  0  0
 30 31  1  0  0  0  0
 33 30  1  0  0  0  0
 34 35  1  0  0  0  0
 34 36  1  0  0  0  0
 34 37  1  0  0  0  0
 38 41  1  0  0  0  0
 38  3  1  0  0  0  0
 39 38  1  0  0  0  0
 40 38  1  0  0  0  0
M  END
