6
q = -1.0, confidence = 0.0

 37 39  0  0  1  0  0  0  0  0999 V2000
    2.1417    0.8191    0.1630 C   0  0  0  0  0  0  0  0  0  0  0  0
    1.6799    1.7314    1.1707 C   0  0  0  0  0  0  0  0  0  0  0  0
    2.1590    1.8932    2.1426 H   0  0  0  0  0  0  0  0  0  0  0  0
    0.4858    2.3395    0.7138 C   0  0  0  0  0  0  0  0  0  0  0  0
   -0.1243    3.0575    1.2699 H   0  0  0  0  0  0  0  0  0  0  0  0
    0.1609    1.7815   -0.5552 C   0  0  0  0  0  3  0  0  0  0  0  0
   -0.7155    2.0386   -1.1610 H   0  0  0  0  0  0  0  0  0  0  0  0
    1.2000    0.8615   -0.9008 C   0  0  0  0  0  0  0  0  0  0  0  0
    1.2677    0.2805   -1.8260 H   0  0  0  0  0  0  0  0  0  0  0  0
    3.4431    0.0541    0.2177 C   0  0  2  0  0  0  0  0  0  0  0  0
    3.5759   -0.2741    1.2683 H   0  0  0  0  0  0  0  0  0  0  0  0
    4.6327    0.9404   -0.1351 C   0  0  0  0  0  0  0  0  0  0  0  0
    5.9279    0.4984    0.2506 C   0  0  0  0  0  0  0  0  0  0  0  0
    7.0671    1.2566   -0.0774 C   0  0  0  0  0  0  0  0  0  0  0  0
    8.0683    0.9179    0.2202 H   0  0  0  0  0  0  0  0  0  0  0  0
    6.9234    2.4600   -0.7894 C   0  0  0  0  0  0  0  0  0  0  0  0
    7.8204    3.0462   -1.0410 H   0  0  0  0  0  0  0  0  0  0  0  0
    5.6548    2.9109   -1.1713 C   0  0  0  0  0  0  0  0  0  0  0  0
    5.5410    3.8547   -1.7244 H   0  0  0  0  0  0  0  0  0  0  0  0
    4.5210    2.1478   -0.8389 C   0  0  0  0  0  0  0  0  0  0  0  0
    3.5197    2.5000   -1.1297 H   0  0  0  0  0  0  0  0  0  0  0  0
    5.9612   -0.6773    0.9378 O   0  0  0  0  0  0  0  0  0  0  0  0
    7.2130   -1.2070    1.3255 C   0  0  0  0  0  0  0  0  0  0  0  0
    7.0009   -2.1604    1.8436 H   0  0  0  0  0  0  0  0  0  0  0  0
    7.7535   -0.5278    2.0226 H   0  0  0  0  0  0  0  0  0  0  0  0
    7.8651   -1.4091    0.4466 H   0  0  0  0  0  0  0  0  0  0  0  0
    3.4154   -1.2068   -0.6439 C   0  0  0  0  0  0  0  0  0  0  0  0
    3.5423   -1.1285   -2.0447 C   0  0  0  0  0  0  0  0  0  0  0  0
    3.7305   -0.1507   -2.5154 H   0  0  0  0  0  0  0  0  0  0  0  0
    3.4475   -2.2822   -2.8393 C   0  0  0  0  0  0  0  0  0  0  0  0
    3.5437   -2.2025   -3.9331 H   0  0  0  0  0  0  0  0  0  0  0  0
    3.2422   -3.5356   -2.2402 C   0  0  0  0  0  0  0  0  0  0  0  0
    3.1715   -4.4415   -2.8613 H   0  0  0  0  0  0  0  0  0  0  0  0
    3.1415   -3.6257   -0.8421 C   0  0  0  0  0  0  0  0  0  0  0  0
    2.9930   -4.6056   -0.3624 H   0  0  0  0  0  0  0  0  0  0  0  0
    3.2267   -2.4701   -0.0510 C   0  0  0  0  0  0  0  0  0  0  0  0
    3.1229   -2.5334    1.0421 H   0  0  0  0  0  0  0  0  0  0  0  0
  1 10  1  0  0  0  0
  1  2  1  0  0  0  0
  2  3  1  0  0  0  0
  4  2  2  0  0  0  0
  4  5  1  0  0  0  0
  6  4  1  0  0  0  0
  7  6  1  0  0  0  0
  8  6  1  0  0  0  0
  8  1  2  0  0  0  0
  9  8  1  0  0  0  0
 10 11  1  1  0  0  0
 12 10  1  0  0  0  0
 12 13  1  0  0  0  0
 13 22  1  0  0  0  0
 14 15  1  0  0  0  0
 14 13  2  0  0  0  0
 16 14  1  0  0  0  0
 17 16  1  0  0  0  0
 18 20  1  0  0  0  0
 18 16  2  0  0  0  0
 19 18  1  0  0  0  0
 20 12  2  0  0  0  0
 21 20  1  0  0  0  0
 22 23  1  0  0  0  0
 23 24  1  0  0  0  0
 23 25  1  0  0  0  0
 26 23  1  0  0  0  0
 27 36  1  0  0  0  0
 27 10  1  0  0  0  0
 28 27  2  0  0  0  0
 29 28  1  0  0  0  0
 30 32  2  0  0  0  0
 30 28  1  0  0  0  0
 31 30  1  0  0  0  0
 32 34  1  0  0  0  0
 33 32  1  0  0  0  0
 34 35  1  0  0  0  0
 34 36  2  0  0  0  0
 36 37  1  0  0  0  0
M  END
