3
q = 0.0, confidence = 0.986

 79 81  0  0  0  0  0  0  0  0999 V2000
    1.0228    1.5006    0.7106 N   0  0  0  0  0  0  0  0  0  0  0  0
   -1.1793    1.4196    0.6709 N   0  0  0  0  0  0  0  0  0  0  0  0
   -0.0434    0.7455    0.3382 C   0  0  0  0  0  2  0  0  0  0  0  0
    0.6214    2.7339    1.4071 C   0  0  0  0  0  0  0  0  0  0  0  0
   -0.8841    2.7912    1.1235 C   0  0  0  0  0  0  0  0  0  0  0  0
    2.3883    1.1053    0.5968 C   0  0  0  0  0  0  0  0  0  0  0  0
    2.7637   -0.2100    0.9303 C   0  0  0  0  0  0  0  0  0  0  0  0
    4.0749   -0.6526    0.7068 C   0  0  0  0  0  0  0  0  0  0  0  0
    5.0151    0.2822    0.2173 C   0  0  0  0  0  0  0  0  0  0  0  0
    4.6811    1.6191   -0.0608 C   0  0  0  0  0  0  0  0  0  0  0  0
    3.3402    2.0178    0.1240 C   0  0  0  0  0  0  0  0  0  0  0  0
    4.4780   -2.1213    0.9223 C   0  0  0  0  0  0  0  0  0  0  0  0
    3.3690   -2.9291    1.6208 C   0  0  0  0  0  0  0  0  0  0  0  0
    5.7623   -2.2019    1.7752 C   0  0  0  0  0  0  0  0  0  0  0  0
    4.7266   -2.7511   -0.4698 C   0  0  0  0  0  0  0  0  0  0  0  0
    5.7059    2.6406   -0.5879 C   0  0  0  0  0  0  0  0  0  0  0  0
    7.1135    2.0344   -0.7216 C   0  0  0  0  0  0  0  0  0  0  0  0
    5.7812    3.8340    0.3912 C   0  0  0  0  0  0  0  0  0  0  0  0
    5.2571    3.1401   -1.9802 C   0  0  0  0  0  0  0  0  0  0  0  0
   -2.5176    0.9794    0.4843 C   0  0  0  0  0  0  0  0  0  0  0  0
   -3.5304    1.9323    0.2455 C   0  0  0  0  0  0  0  0  0  0  0  0
   -4.8601    1.5246    0.0538 C   0  0  0  0  0  0  0  0  0  0  0  0
   -5.1497    0.1433    0.0989 C   0  0  0  0  0  0  0  0  0  0  0  0
   -4.1607   -0.8244    0.3466 C   0  0  0  0  0  0  0  0  0  0  0  0
   -2.8412   -0.3832    0.5622 C   0  0  0  0  0  0  0  0  0  0  0  0
   -5.9960    2.5294   -0.2134 C   0  0  0  0  0  0  0  0  0  0  0  0
   -5.4977    3.9848   -0.2241 C   0  0  0  0  0  0  0  0  0  0  0  0
   -6.6311    2.2224   -1.5888 C   0  0  0  0  0  0  0  0  0  0  0  0
   -7.0661    2.3904    0.8933 C   0  0  0  0  0  0  0  0  0  0  0  0
   -4.4563   -2.3343    0.3795 C   0  0  0  0  0  0  0  0  0  0  0  0
   -5.9572   -2.6312    0.2193 C   0  0  0  0  0  0  0  0  0  0  0  0
   -3.9839   -2.9249    1.7270 C   0  0  0  0  0  0  0  0  0  0  0  0
   -3.6899   -3.0149   -0.7793 C   0  0  0  0  0  0  0  0  0  0  0  0
    1.1628    3.6161    1.0164 H   0  0  0  0  0  0  0  0  0  0  0  0
    0.8563    2.6401    2.4900 H   0  0  0  0  0  0  0  0  0  0  0  0
   -1.4931    3.0497    2.0112 H   0  0  0  0  0  0  0  0  0  0  0  0
   -1.1245    3.5177    0.3171 H   0  0  0  0  0  0  0  0  0  0  0  0
    2.0059   -0.8859    1.3431 H   0  0  0  0  0  0  0  0  0  0  0  0
    6.0447   -0.0560    0.0449 H   0  0  0  0  0  0  0  0  0  0  0  0
    3.0267    3.0380   -0.1412 H   0  0  0  0  0  0  0  0  0  0  0  0
    3.1104   -2.5026    2.6118 H   0  0  0  0  0  0  0  0  0  0  0  0
    3.7161   -3.9689    1.7851 H   0  0  0  0  0  0  0  0  0  0  0  0
    2.4494   -2.9858    1.0040 H   0  0  0  0  0  0  0  0  0  0  0  0
    6.6204   -1.6939    1.2919 H   0  0  0  0  0  0  0  0  0  0  0  0
    6.0510   -3.2616    1.9301 H   0  0  0  0  0  0  0  0  0  0  0  0
    5.6097   -1.7384    2.7713 H   0  0  0  0  0  0  0  0  0  0  0  0
    5.0500   -3.8070   -0.3592 H   0  0  0  0  0  0  0  0  0  0  0  0
    5.5164   -2.2089   -1.0280 H   0  0  0  0  0  0  0  0  0  0  0  0
    3.7984   -2.7389   -1.0762 H   0  0  0  0  0  0  0  0  0  0  0  0
    7.1332    1.1918   -1.4414 H   0  0  0  0  0  0  0  0  0  0  0  0
    7.4986    1.6677    0.2511 H   0  0  0  0  0  0  0  0  0  0  0  0
    7.8193    2.8047   -1.0921 H   0  0  0  0  0  0  0  0  0  0  0  0
    6.1030    3.5005    1.3985 H   0  0  0  0  0  0  0  0  0  0  0  0
    4.8014    4.3406    0.5005 H   0  0  0  0  0  0  0  0  0  0  0  0
    6.5098    4.5881    0.0281 H   0  0  0  0  0  0  0  0  0  0  0  0
    4.2652    3.6331   -1.9433 H   0  0  0  0  0  0  0  0  0  0  0  0
    5.1874    2.2986   -2.6984 H   0  0  0  0  0  0  0  0  0  0  0  0
    5.9838    3.8774   -2.3799 H   0  0  0  0  0  0  0  0  0  0  0  0
   -3.2734    2.9963    0.1898 H   0  0  0  0  0  0  0  0  0  0  0  0
   -6.1861   -0.1813   -0.0600 H   0  0  0  0  0  0  0  0  0  0  0  0
   -2.0448   -1.1058    0.7862 H   0  0  0  0  0  0  0  0  0  0  0  0
   -4.7466    4.1586   -1.0212 H   0  0  0  0  0  0  0  0  0  0  0  0
   -5.0481    4.2743    0.7475 H   0  0  0  0  0  0  0  0  0  0  0  0
   -6.3469    4.6713   -0.4142 H   0  0  0  0  0  0  0  0  0  0  0  0
   -5.8811    2.3132   -2.4003 H   0  0  0  0  0  0  0  0  0  0  0  0
   -7.4582    2.9312   -1.8006 H   0  0  0  0  0  0  0  0  0  0  0  0
   -7.0476    1.1967   -1.6293 H   0  0  0  0  0  0  0  0  0  0  0  0
   -7.9006    3.1002    0.7169 H   0  0  0  0  0  0  0  0  0  0  0  0
   -6.6342    2.6063    1.8915 H   0  0  0  0  0  0  0  0  0  0  0  0
   -7.4938    1.3689    0.9254 H   0  0  0  0  0  0  0  0  0  0  0  0
   -6.1274   -3.7256    0.2607 H   0  0  0  0  0  0  0  0  0  0  0  0
   -6.3475   -2.2737   -0.7549 H   0  0  0  0  0  0  0  0  0  0  0  0
   -6.5603   -2.1673    1.0265 H   0  0  0  0  0  0  0  0  0  0  0  0
   -2.8937   -2.7964    1.8753 H   0  0  0  0  0  0  0  0  0  0  0  0
   -4.1952   -4.0133    1.7616 H   0  0  0  0  0  0  0  0  0  0  0  0
   -4.5058   -2.4442    2.5795 H   0  0  0  0  0  0  0  0  0  0  0  0
   -2.5918   -2.8859   -0.6990 H   0  0  0  0  0  0  0  0  0  0  0  0
   -4.0043   -2.5990   -1.7578 H   0  0  0  0  0  0  0  0  0  0  0  0
   -3.8983   -4.1048   -0.7868 H   0  0  0  0  0  0  0  0  0  0  0  0
  1  4  1  0  0  0  0
  2  5  1  0  0  0  0
  3  2  1  0  0  0  0
  3  1  1  0  0  0  0
  4 35  1  0  0  0  0
  5  4  1  0  0  0  0
  5 36  1  0  0  0  0
  6  1  1  0  0  0  0
  6  7  1  0  0  0  0
  7 38  1  0  0  0  0
  8 12  1  0  0  0  0
  8  7  2  0  0  0  0
  9  8  1  0  0  0  0
 10 11  1  0  0  0  0
 10  9  2  0  0  0  0
 11  6  2  0  0  0  0
 12 13  1  0  0  0  0
 12 14  1  0  0  0  0
 13 42  1  0  0  0  0
 13 41  1  0  0  0  0
 14 45  1  0  0  0  0
 14 46  1  0  0  0  0
 15 47  1  0  0  0  0
 15 12  1  0  0  0  0
 16 10  1  0  0  0  0
 16 18  1  0  0  0  0
 17 16  1  0  0  0  0
 17 51  1  0  0  0  0
 18 54  1  0  0  0  0
 18 53  1  0  0  0  0
 19 56  1  0  0  0  0
 19 16  1  0  0  0  0
 20 25  1  0  0  0  0
 20  2  1  0  0  0  0
 21 20  2  0  0  0  0
 22 23  2  0  0  0  0
 22 21  1  0  0  0  0
 23 24  1  0  0  0  0
 24 30  1  0  0  0  0
 24 25  2  0  0  0  0
 25 61  1  0  0  0  0
 26 22  1  0  0  0  0
 26 29  1  0  0  0  0
 27 26  1  0  0  0  0
 27 63  1  0  0  0  0
 28 26  1  0  0  0  0
 29 70  1  0  0  0  0
 29 69  1  0  0  0  0
 30 32  1  0  0  0  0
 31 71  1  0  0  0  0
 31 30  1  0  0  0  0
 31 73  1  0  0  0  0
 32 75  1  0  0  0  0
 32 74  1  0  0  0  0
 32 76  1  0  0  0  0
 33 77  1  0  0  0  0
 33 30  1  0  0  0  0
 34  4  1  0  0  0  0
 37  5  1  0  0  0  0
 39  9  1  0  0  0  0
 40 11  1  0  0  0  0
 43 13  1  0  0  0  0
 44 14  1  0  0  0  0
 48 15  1  0  0  0  0
 49 15  1  0  0  0  0
 50 17  1  0  0  0  0
 52 17  1  0  0  0  0
 55 18  1  0  0  0  0
 57 19  1  0  0  0  0
 58 19  1  0  0  0  0
 59 21  1  0  0  0  0
 60 23  1  0  0  0  0
 62 27  1  0  0  0  0
 64 27  1  0  0  0  0
 65 28  1  0  0  0  0
 66 28  1  0  0  0  0
 67 28  1  0  0  0  0
 68 29  1  0  0  0  0
 72 31  1  0  0  0  0
 78 33  1  0  0  0  0
 79 33  1  0  0  0  0
M  END
