1
q = 0.0, confidence = 0.952

 11 10  0  0  0  0  0  0  0  0999 V2000
    1.2474   -0.0842   -1.8369 C   0  0  0  0  0  3  0  0  0  0  0  0
    1.9433   -0.1350   -0.7451 C   0  0  0  0  0  3  0  0  0  0  0  0
    3.2457   -0.0960   -0.1185 C   0  0  0  0  0  0  0  0  0  0  0  0
    3.4198   -0.4470    1.1824 C   0  0  0  0  0  0  0  0  0  0  0  0
    4.3898    0.3528   -1.0001 C   0  0  0  0  0  0  0  0  0  0  0  0
    1.2601   -0.0518   -2.9309 H   0  0  0  0  0  0  0  0  0  0  0  0
    4.4193   -0.4400    1.6438 H   0  0  0  0  0  0  0  0  0  0  0  0
    2.5688   -0.7782    1.7952 H   0  0  0  0  0  0  0  0  0  0  0  0
    5.3524    0.3536   -0.4534 H   0  0  0  0  0  0  0  0  0  0  0  0
    4.2062    1.3754   -1.3917 H   0  0  0  0  0  0  0  0  0  0  0  0
    4.4854   -0.3114   -1.8841 H   0  0  0  0  0  0  0  0  0  0  0  0
  1  2  2  0  0  0  0
  2  3  1  0  0  0  0
  3  4  2  0  0  0  0
  4  7  1  0  0  0  0
  4  8  1  0  0  0  0
  5  9  1  0  0  0  0
  5  3  1  0  0  0  0
  6  1  1  0  0  0  0
 10  5  1  0  0  0  0
 11  5  1  0  0  0  0
M  END
