2
q = -1.0, confidence = 0.0

 44 47  0  0  1  0  0  0  0  0999 V2000
   -1.1515    0.3435    0.5467 P   0  0  0  0  0  0  0  0  0  0  0  0
    1.7609   -0.5863    2.3121 C   0  0  0  0  0  3  0  0  0  0  0  0
    1.3581   -1.1861    3.1378 H   0  0  0  0  0  0  0  0  0  0  0  0
    2.8605   -0.9515    1.4501 C   0  0  0  0  0  3  0  0  0  0  0  0
    3.4365   -1.8817    1.5076 H   0  0  0  0  0  0  0  0  0  0  0  0
    3.2169    0.1925    0.6461 C   0  0  0  0  0  0  0  0  0  0  0  0
    4.2718    0.4195   -0.2836 C   0  0  0  0  0  0  0  0  0  0  0  0
    5.0058   -0.3716   -0.4951 H   0  0  0  0  0  0  0  0  0  0  0  0
    4.3643    1.6661   -0.8839 C   0  0  0  0  0  0  0  0  0  0  0  0
    5.1858    1.8690   -1.5872 H   0  0  0  0  0  0  0  0  0  0  0  0
    3.4348    2.7124   -0.5900 C   0  0  0  0  0  0  0  0  0  0  0  0
    3.5663    3.6928   -1.0708 H   0  0  0  0  0  0  0  0  0  0  0  0
    2.3932    2.5196    0.3039 C   0  0  0  0  0  0  0  0  0  0  0  0
    1.6994    3.3365    0.5475 H   0  0  0  0  0  0  0  0  0  0  0  0
    2.2603    1.2456    0.9294 C   0  0  0  0  0  0  0  0  0  0  0  0
    1.3445    0.7412    1.9501 C   0  0  2  0  0  3  0  0  0  0  0  0
    0.2124    1.5094    2.5853 C   0  0  0  0  0  0  0  0  0  0  0  0
    0.1572    2.5244    2.1447 H   0  0  0  0  0  0  0  0  0  0  0  0
    0.4133    1.6395    3.6693 H   0  0  0  0  0  0  0  0  0  0  0  0
   -1.1108    0.7735    2.3651 C   0  0  0  0  0  0  0  0  0  0  0  0
   -2.0016    1.3642    2.6584 H   0  0  0  0  0  0  0  0  0  0  0  0
   -1.1299   -0.1780    2.9338 H   0  0  0  0  0  0  0  0  0  0  0  0
   -1.4713    1.9911   -0.2148 C   0  0  0  0  0  0  0  0  0  0  0  0
   -2.6518    2.6898    0.1287 C   0  0  0  0  0  0  0  0  0  0  0  0
   -3.3950    2.2300    0.7983 H   0  0  0  0  0  0  0  0  0  0  0  0
   -2.8919    3.9676   -0.3930 C   0  0  0  0  0  0  0  0  0  0  0  0
   -3.8136    4.5029   -0.1204 H   0  0  0  0  0  0  0  0  0  0  0  0
   -1.9617    4.5620   -1.2633 C   0  0  0  0  0  0  0  0  0  0  0  0
   -2.1556    5.5639   -1.6746 H   0  0  0  0  0  0  0  0  0  0  0  0
   -0.7884    3.8752   -1.6064 C   0  0  0  0  0  0  0  0  0  0  0  0
   -0.0560    4.3350   -2.2867 H   0  0  0  0  0  0  0  0  0  0  0  0
   -0.5430    2.5952   -1.0830 C   0  0  0  0  0  0  0  0  0  0  0  0
    0.3860    2.0698   -1.3388 H   0  0  0  0  0  0  0  0  0  0  0  0
   -2.7587   -0.5242    0.3468 C   0  0  0  0  0  0  0  0  0  0  0  0
   -3.5714   -0.2905   -0.7840 C   0  0  0  0  0  0  0  0  0  0  0  0
   -3.2748    0.4597   -1.5320 H   0  0  0  0  0  0  0  0  0  0  0  0
   -4.7714   -0.9957   -0.9509 C   0  0  0  0  0  0  0  0  0  0  0  0
   -5.3961   -0.8034   -1.8359 H   0  0  0  0  0  0  0  0  0  0  0  0
   -5.1786   -1.9362    0.0091 C   0  0  0  0  0  0  0  0  0  0  0  0
   -6.1208   -2.4881   -0.1241 H   0  0  0  0  0  0  0  0  0  0  0  0
   -4.3871   -2.1600    1.1464 C   0  0  0  0  0  0  0  0  0  0  0  0
   -4.7087   -2.8824    1.9111 H   0  0  0  0  0  0  0  0  0  0  0  0
   -3.1836   -1.4596    1.3160 C   0  0  0  0  0  0  0  0  0  0  0  0
   -2.5840   -1.6451    2.2196 H   0  0  0  0  0  0  0  0  0  0  0  0
  1 20  1  0  0  0  0
  2  3  1  0  0  0  0
  4  5  1  0  0  0  0
  4  2  1  0  0  0  0
  6 15  1  0  0  0  0
  6  4  1  0  0  0  0
  7  6  2  0  0  0  0
  8  7  1  0  0  0  0
  9 11  2  0  0  0  0
  9  7  1  0  0  0  0
 10  9  1  0  0  0  0
 11 13  1  0  0  0  0
 12 11  1  0  0  0  0
 13 14  1  0  0  0  0
 13 15  2  0  0  0  0
 15 16  1  0  0  0  0
 16  2  1  0  0  0  0
 16 17  1  1  0  0  0
 17 19  1  0  0  0  0
 18 17  1  0  0  0  0
 20 17  1  0  0  0  0
 20 21  1  0  0  0  0
 20 22  1  0  0  0  0
 23 24  1  0  0  0  0
 23  1  1  0  0  0  0
 24 25  1  0  0  0  0
 26 27  1  0  0  0  0
 26 24  2  0  0  0  0
 28 26  1  0  0  0  0
 29 28  1  0  0  0  0
 30 28  2  0  0  0  0
 30 32  1  0  0  0  0
 31 30  1  0  0  0  0
 32 23  2  0  0  0  0
 33 32  1  0  0  0  0
 34  1  1  0  0  0  0
 34 43  1  0  0  0  0
 35 34  2  0  0  0  0
 36 35  1  0  0  0  0
 37 35  1  0  0  0  0
 37 39  2  0  0  0  0
 38 37  1  0  0  0  0
 39 41  1  0  0  0  0
 40 39  1  0  0  0  0
 41 43  2  0  0  0  0
 41 42  1  0  0  0  0
 43 44  1  0  0  0  0
M  END
