2
q = -1.0, confidence = 0.0

 17 18  0  0  0  0  0  0  0  0999 V2000
    1.7973   -1.9648   -0.1059 Br  0  0  0  0  0  0  0  0  0  0  0  0
    1.2349    1.1251    0.3984 C   0  0  0  0  0  3  0  0  0  0  0  0
    0.9621    2.3845    0.9205 C   0  0  0  0  0  0  0  0  0  0  0  0
   -0.0535    2.6336    1.2589 H   0  0  0  0  0  0  0  0  0  0  0  0
    1.9676    3.3792    1.0460 C   0  0  0  0  0  0  0  0  0  0  0  0
    1.6992    4.3679    1.4488 H   0  0  0  0  0  0  0  0  0  0  0  0
    3.2675    3.1122    0.6545 C   0  0  0  0  0  0  0  0  0  0  0  0
    4.0486    3.8848    0.7183 H   0  0  0  0  0  0  0  0  0  0  0  0
    4.9753    1.4945   -0.1408 C   0  0  0  0  0  0  0  0  0  0  0  0
    5.7276    2.2964   -0.0910 H   0  0  0  0  0  0  0  0  0  0  0  0
    5.3433    0.2107   -0.5066 C   0  0  0  0  0  0  0  0  0  0  0  0
    6.3871   -0.0217   -0.7646 H   0  0  0  0  0  0  0  0  0  0  0  0
    4.3781   -0.8291   -0.5193 C   0  0  0  0  0  0  0  0  0  0  0  0
    4.6717   -1.8613   -0.7563 H   0  0  0  0  0  0  0  0  0  0  0  0
    3.0643   -0.5227   -0.2111 C   0  0  0  0  0  0  0  0  0  0  0  0
    2.6031    0.7872    0.1134 C   0  0  0  0  0  0  0  0  0  0  0  0
    3.6270    1.8116    0.1994 C   0  0  0  0  0  0  0  0  0  0  0  0
  2  3  1  0  0  0  0
  3  5  2  0  0  0  0
  3  4  1  0  0  0  0
  5  6  1  0  0  0  0
  7  8  1  0  0  0  0
  7  5  1  0  0  0  0
  9 10  1  0  0  0  0
  9 17  1  0  0  0  0
 11  9  2  0  0  0  0
 12 11  1  0  0  0  0
 13 11  1  0  0  0  0
 13 15  2  0  0  0  0
 14 13  1  0  0  0  0
 15  1  1  0  0  0  0
 15 16  1  0  0  0  0
 16 17  1  0  0  0  0
 16  2  2  0  0  0  0
 17  7  2  0  0  0  0
M  END
