5
q = 0.0, confidence = 0.972

 13 13  0  0  0  0  0  0  0  0999 V2000
    1.8741    1.1539    0.0002 N   0  0  0  0  0  0  0  0  0  0  0  0
    3.1699    0.8403    0.0001 N   0  0  0  0  0  2  0  0  0  0  0  0
    3.1352   -0.4658    0.0001 N   0  0  0  0  0  0  0  0  0  0  0  0
    1.9190   -1.0132    0.0001 N   0  0  0  0  0  0  0  0  0  0  0  0
    1.0465    0.0278    0.0002 C   0  0  0  0  0  3  0  0  0  0  0  0
    1.4930    2.5580    0.0001 C   0  0  0  0  0  0  0  0  0  0  0  0
    4.3495   -1.2636    0.0001 C   0  0  0  0  0  0  0  0  0  0  0  0
    0.8909    2.7808   -0.8994 H   0  0  0  0  0  0  0  0  0  0  0  0
    0.8901    2.7806    0.8991 H   0  0  0  0  0  0  0  0  0  0  0  0
    2.4167    3.1614    0.0006 H   0  0  0  0  0  0  0  0  0  0  0  0
    4.3585   -1.9044    0.9014 H   0  0  0  0  0  0  0  0  0  0  0  0
    5.2129   -0.5771    0.0007 H   0  0  0  0  0  0  0  0  0  0  0  0
    4.3592   -1.9036   -0.9017 H   0  0  0  0  0  0  0  0  0  0  0  0
  2  1  1  0  0  0  0
  3  2  1  0  0  0  0
  3  7  1  0  0  0  0
  4  3  1  0  0  0  0
  4  5  2  0  0  0  0
  5  1  1  0  0  0  0
  6  1  1  0  0  0  0
  6 10  1  0  0  0  0
  6  9  1  0  0  0  0
  7 12  1  0  0  0  0
  7 11  1  0  0  0  0
  8  6  1  0  0  0  0
 13  7  1  0  0  0  0
M  END
