5
q = -1.0, confidence = 0.006

 24 23  0  0  0  0  0  0  0  0999 V2000
    1.3385   -0.2791    0.3542 O   0  0  0  0  0  0  0  0  0  0  0  0
    3.4561    0.5696    0.1939 N   0  0  0  0  0  0  0  0  0  0  0  0
    3.9985    1.4009   -0.0445 H   0  0  0  0  0  0  0  0  0  0  0  0
    2.1093    0.7325    0.1893 C   0  0  0  0  0  0  0  0  0  0  0  0
    0.1457    1.9540   -0.1640 C   0  0  0  0  0  3  0  0  0  0  0  0
   -0.4323    2.8829   -0.3373 H   0  0  0  0  0  0  0  0  0  0  0  0
    1.5097    2.0447   -0.0059 C   0  0  0  0  0  0  0  0  0  0  0  0
    2.3395    3.2978   -0.0810 C   0  0  0  0  0  0  0  0  0  0  0  0
    2.9540    3.4575    0.8328 H   0  0  0  0  0  0  0  0  0  0  0  0
    1.6926    4.1873   -0.2069 H   0  0  0  0  0  0  0  0  0  0  0  0
    3.0383    3.2849   -0.9489 H   0  0  0  0  0  0  0  0  0  0  0  0
    3.8457   -1.5798    1.3615 C   0  0  0  0  0  0  0  0  0  0  0  0
    4.0920   -1.0315    2.2931 H   0  0  0  0  0  0  0  0  0  0  0  0
    4.4387   -2.5158    1.3391 H   0  0  0  0  0  0  0  0  0  0  0  0
    2.7710   -1.8368    1.3770 H   0  0  0  0  0  0  0  0  0  0  0  0
    4.1774   -0.7229    0.1260 C   0  0  0  0  0  0  0  0  0  0  0  0
    5.6745   -0.3783    0.1239 C   0  0  0  0  0  0  0  0  0  0  0  0
    5.9384    0.2543   -0.7498 H   0  0  0  0  0  0  0  0  0  0  0  0
    6.2787   -1.3036    0.0607 H   0  0  0  0  0  0  0  0  0  0  0  0
    5.9633    0.1589    1.0507 H   0  0  0  0  0  0  0  0  0  0  0  0
    3.7969   -1.4606   -1.1732 C   0  0  0  0  0  0  0  0  0  0  0  0
    2.7028   -1.6178   -1.2323 H   0  0  0  0  0  0  0  0  0  0  0  0
    4.3071   -2.4437   -1.2206 H   0  0  0  0  0  0  0  0  0  0  0  0
    4.1010   -0.8677   -2.0594 H   0  0  0  0  0  0  0  0  0  0  0  0
  3  2  1  0  0  0  0
  4  2  1  0  0  0  0
  4  1  2  0  0  0  0
  5  7  2  0  0  0  0
  6  5  1  0  0  0  0
  7  4  1  0  0  0  0
  8  7  1  0  0  0  0
  8  9  1  0  0  0  0
 10  8  1  0  0  0  0
 11  8  1  0  0  0  0
 12 15  1  0  0  0  0
 12 13  1  0  0  0  0
 14 12  1  0  0  0  0
 16  2  1  0  0  0  0
 16 12  1  0  0  0  0
 17 16  1  0  0  0  0
 17 20  1  0  0  0  0
 18 17  1  0  0  0  0
 19 17  1  0  0  0  0
 21 16  1  0  0  0  0
 22 21  1  0  0  0  0
 23 21  1  0  0  0  0
 24 21  1  0  0  0  0
M  END
