4
q = 0.0, confidence = 0.938

 40 41  0  0  1  0  0  0  0  0999 V2000
   -0.0900   -1.1737    0.1212 C   0  0  1  0  0  0  0  0  0  0  0  0
    0.9846   -0.4813    0.9631 C   0  0  0  0  0  3  0  0  0  0  0  0
    0.6486   -0.1828    1.9682 H   0  0  0  0  0  0  0  0  0  0  0  0
    2.3528   -0.9511    0.8972 C   0  0  0  0  0  3  0  0  0  0  0  0
    2.9891   -1.0783    1.7836 H   0  0  0  0  0  0  0  0  0  0  0  0
    2.8184   -1.1647   -0.4356 C   0  0  1  0  0  3  0  0  0  0  0  0
    1.8670   -0.7960   -1.4517 C   0  0  0  0  0  3  0  0  0  0  0  0
    2.2828   -0.7278   -2.4705 H   0  0  0  0  0  0  0  0  0  0  0  0
    0.4343   -1.2747   -1.3460 C   0  0  0  0  0  0  0  0  0  0  0  0
    0.3540   -2.3189   -1.7260 H   0  0  0  0  0  0  0  0  0  0  0  0
   -0.2015   -0.6580   -2.0098 H   0  0  0  0  0  0  0  0  0  0  0  0
    4.0587   -1.5568   -0.8007 O   0  0  0  0  0  0  0  0  0  0  0  0
    5.0814   -1.4981    0.1874 C   0  0  0  0  0  0  0  0  0  0  0  0
    6.0291   -1.7420   -0.3257 H   0  0  0  0  0  0  0  0  0  0  0  0
    4.9082   -2.2345    1.0018 H   0  0  0  0  0  0  0  0  0  0  0  0
    5.1479   -0.4771    0.6242 H   0  0  0  0  0  0  0  0  0  0  0  0
   -0.2753   -2.6277    0.6892 C   0  0  0  0  0  0  0  0  0  0  0  0
   -1.0647   -3.1624    0.1210 H   0  0  0  0  0  0  0  0  0  0  0  0
    0.6694   -3.1968    0.5533 H   0  0  0  0  0  0  0  0  0  0  0  0
   -0.6290   -2.6508    2.1067 C   0  0  0  0  0  0  0  0  0  0  0  0
   -0.8921   -2.6456    3.2482 N   0  0  0  0  0  0  0  0  0  0  0  0
   -1.4423   -0.4537    0.1734 C   0  0  0  0  0  0  0  0  0  0  0  0
   -2.5020   -0.9493   -0.6270 C   0  0  0  0  0  0  0  0  0  0  0  0
   -2.3277   -1.8210   -1.2732 H   0  0  0  0  0  0  0  0  0  0  0  0
   -3.7684   -0.3535   -0.6251 C   0  0  0  0  0  0  0  0  0  0  0  0
   -4.0069    0.7866    0.2041 C   0  0  0  0  0  0  0  0  0  0  0  0
   -2.9588    1.2781    0.9910 C   0  0  0  0  0  0  0  0  0  0  0  0
   -3.1160    2.1566    1.6303 H   0  0  0  0  0  0  0  0  0  0  0  0
   -1.6910    0.6638    0.9763 C   0  0  0  0  0  0  0  0  0  0  0  0
   -0.8966    1.0960    1.5972 H   0  0  0  0  0  0  0  0  0  0  0  0
   -4.8296   -0.7707   -1.3652 O   0  0  0  0  0  0  0  0  0  0  0  0
   -4.6536   -1.8916   -2.2049 C   0  0  0  0  0  0  0  0  0  0  0  0
   -5.6229   -2.0617   -2.7094 H   0  0  0  0  0  0  0  0  0  0  0  0
   -4.3815   -2.8056   -1.6288 H   0  0  0  0  0  0  0  0  0  0  0  0
   -3.8706   -1.7149   -2.9777 H   0  0  0  0  0  0  0  0  0  0  0  0
   -5.2609    1.3035    0.1467 O   0  0  0  0  0  0  0  0  0  0  0  0
   -5.5477    2.4307    0.9502 C   0  0  0  0  0  0  0  0  0  0  0  0
   -6.6066    2.6881    0.7624 H   0  0  0  0  0  0  0  0  0  0  0  0
   -4.9098    3.3038    0.6836 H   0  0  0  0  0  0  0  0  0  0  0  0
   -5.4142    2.2126    2.0340 H   0  0  0  0  0  0  0  0  0  0  0  0
  1 22  1  0  0  0  0
  1 17  1  1  0  0  0
  1  2  1  0  0  0  0
  2  3  1  0  0  0  0
  4  2  1  0  0  0  0
  4  5  1  0  0  0  0
  6 12  1  6  0  0  0
  6  4  1  0  0  0  0
  7  9  1  0  0  0  0
  7  6  1  0  0  0  0
  8  7  1  0  0  0  0
  9  1  1  0  0  0  0
 10  9  1  0  0  0  0
 11  9  1  0  0  0  0
 12 13  1  0  0  0  0
 13 16  1  0  0  0  0
 13 15  1  0  0  0  0
 14 13  1  0  0  0  0
 17 20  1  0  0  0  0
 18 17  1  0  0  0  0
 19 17  1  0  0  0  0
 20 21  3  0  0  0  0
 22 29  1  0  0  0  0
 23 25  1  0  0  0  0
 23 22  2  0  0  0  0
 24 23  1  0  0  0  0
 25 26  2  0  0  0  0
 26 27  1  0  0  0  0
 27 28  1  0  0  0  0
 29 27  2  0  0  0  0
 29 30  1  0  0  0  0
 31 25  1  0  0  0  0
 32 34  1  0  0  0  0
 32 31  1  0  0  0  0
 33 32  1  0  0  0  0
 35 32  1  0  0  0  0
 36 26  1  0  0  0  0
 36 37  1  0  0  0  0
 37 40  1  0  0  0  0
 38 37  1  0  0  0  0
 39 37  1  0  0  0  0
M  END
