8
q = -1.0, confidence = 0.062

 11 10  0  0  0  0  0  0  0  0999 V2000
   -0.1047    3.0081   -0.5866 F   0  0  0  0  0  0  0  0  0  0  0  0
    1.1960    2.3109   -2.2068 F   0  0  0  0  0  0  0  0  0  0  0  0
    2.0367    3.2810   -0.4521 F   0  0  0  0  0  0  0  0  0  0  0  0
    2.2117   -1.2990    1.4176 F   0  0  0  0  0  0  0  0  0  0  0  0
    3.7071   -1.1998   -0.1654 F   0  0  0  0  0  0  0  0  0  0  0  0
    4.0252   -0.1318    1.7112 F   0  0  0  0  0  0  0  0  0  0  0  0
    1.0756    2.3956   -0.8623 C   0  0  0  0  0  0  0  0  0  0  0  0
    1.2001    1.0148   -0.2159 C   0  0  0  0  0  3  0  0  0  0  0  0
    2.4624    0.7795    0.2248 C   0  0  0  0  0  0  0  0  0  0  0  0
    3.0711   -0.4505    0.8008 C   0  0  0  0  0  0  0  0  0  0  0  0
    3.2305    1.5641    0.1163 H   0  0  0  0  0  0  0  0  0  0  0  0
  2  7  1  0  0  0  0
  5 10  1  0  0  0  0
  7  1  1  0  0  0  0
  7  3  1  0  0  0  0
  7  8  1  0  0  0  0
  8  9  2  0  0  0  0
  9 10  1  0  0  0  0
 10  4  1  0  0  0  0
 10  6  1  0  0  0  0
 11  9  1  0  0  0  0
M  END
