7
q = 0.0, confidence = 0.882

 43 43  0  0  0  0  0  0  0  0999 V2000
   -2.0260   -0.1638   -0.0105 Si  0  0  0  0  0  0  0  0  0  0  0  0
   -2.8081   -1.0769    2.0246 Si  0  0  0  0  0  0  0  0  0  0  0  0
   -2.8546    2.0331   -0.2492 Si  0  0  0  0  0  0  0  0  0  0  0  0
   -2.8503   -1.4856   -1.7820 Si  0  0  0  0  0  0  0  0  0  0  0  0
    0.6857   -1.3589   -0.1180 C   0  0  0  0  0  0  0  0  0  0  0  0
    0.5353   -2.4539   -0.1957 H   0  0  0  0  0  0  0  0  0  0  0  0
   -0.1675   -0.3474   -0.0406 C   0  0  0  0  0  3  0  0  0  0  0  0
   -1.7421   -2.5951    2.4370 C   0  0  0  0  0  0  0  0  0  0  0  0
   -2.0288   -3.0356    3.4150 H   0  0  0  0  0  0  0  0  0  0  0  0
   -0.6713   -2.3082    2.4773 H   0  0  0  0  0  0  0  0  0  0  0  0
   -1.8477   -3.3763    1.6575 H   0  0  0  0  0  0  0  0  0  0  0  0
   -2.6821    0.1579    3.4687 C   0  0  0  0  0  0  0  0  0  0  0  0
   -3.2458    1.0896    3.2580 H   0  0  0  0  0  0  0  0  0  0  0  0
   -1.6293    0.4365    3.6770 H   0  0  0  0  0  0  0  0  0  0  0  0
   -3.1004   -0.2898    4.3951 H   0  0  0  0  0  0  0  0  0  0  0  0
   -4.6290   -1.6064    1.8617 C   0  0  0  0  0  0  0  0  0  0  0  0
   -4.7496   -2.3842    1.0806 H   0  0  0  0  0  0  0  0  0  0  0  0
   -5.2731   -0.7469    1.5862 H   0  0  0  0  0  0  0  0  0  0  0  0
   -5.0041   -2.0232    2.8203 H   0  0  0  0  0  0  0  0  0  0  0  0
   -1.8589    3.2736    0.7937 C   0  0  0  0  0  0  0  0  0  0  0  0
   -2.2403    4.3063    0.6488 H   0  0  0  0  0  0  0  0  0  0  0  0
   -0.7909    3.2517    0.4984 H   0  0  0  0  0  0  0  0  0  0  0  0
   -1.9169    3.0340    1.8748 H   0  0  0  0  0  0  0  0  0  0  0  0
   -2.8299    2.6318   -2.0579 C   0  0  0  0  0  0  0  0  0  0  0  0
   -3.3942    1.9414   -2.7175 H   0  0  0  0  0  0  0  0  0  0  0  0
   -1.7986    2.7139   -2.4565 H   0  0  0  0  0  0  0  0  0  0  0  0
   -3.3010    3.6348   -2.1346 H   0  0  0  0  0  0  0  0  0  0  0  0
   -4.6684    2.0580    0.3309 C   0  0  0  0  0  0  0  0  0  0  0  0
   -5.1127    3.0647    0.1809 H   0  0  0  0  0  0  0  0  0  0  0  0
   -4.7521    1.8064    1.4077 H   0  0  0  0  0  0  0  0  0  0  0  0
   -5.2801    1.3268   -0.2359 H   0  0  0  0  0  0  0  0  0  0  0  0
   -1.8414   -1.0839   -3.3441 C   0  0  0  0  0  0  0  0  0  0  0  0
   -0.7624   -1.2507   -3.1476 H   0  0  0  0  0  0  0  0  0  0  0  0
   -1.9721   -0.0263   -3.6510 H   0  0  0  0  0  0  0  0  0  0  0  0
   -2.1452   -1.7290   -4.1953 H   0  0  0  0  0  0  0  0  0  0  0  0
   -4.6939   -1.1614   -2.1258 C   0  0  0  0  0  0  0  0  0  0  0  0
   -4.8665   -0.1072   -2.4247 H   0  0  0  0  0  0  0  0  0  0  0  0
   -5.3108   -1.3637   -1.2269 H   0  0  0  0  0  0  0  0  0  0  0  0
   -5.0614   -1.8115   -2.9479 H   0  0  0  0  0  0  0  0  0  0  0  0
   -2.6065   -3.3314   -1.3881 C   0  0  0  0  0  0  0  0  0  0  0  0
   -2.8997   -3.9630   -2.2535 H   0  0  0  0  0  0  0  0  0  0  0  0
   -3.2130   -3.6451   -0.5143 H   0  0  0  0  0  0  0  0  0  0  0  0
   -1.5419   -3.5381   -1.1546 H   0  0  0  0  0  0  0  0  0  0  0  0
  1  2  1  0  0  0  0
  1  5  1  0  0  0  0
  2  8  1  0  0  0  0
  2 12  1  0  0  0  0
  3  1  1  0  0  0  0
  3 28  1  0  0  0  0
  3 20  1  0  0  0  0
  4 40  1  0  0  0  0
  4  1  1  0  0  0  0
  5  7  2  3  0  0  0
  6  5  1  0  0  0  0
  7  1  1  0  0  0  0
  8 10  1  0  0  0  0
  8  9  1  0  0  0  0
 11  8  1  0  0  0  0
 12 14  1  0  0  0  0
 12 15  1  0  0  0  0
 13 12  1  0  0  0  0
 16  2  1  0  0  0  0
 16 19  1  0  0  0  0
 17 16  1  0  0  0  0
 18 16  1  0  0  0  0
 20 23  1  0  0  0  0
 21 20  1  0  0  0  0
 22 20  1  0  0  0  0
 24  3  1  0  0  0  0
 25 24  1  0  0  0  0
 26 24  1  0  0  0  0
 27 24  1  0  0  0  0
 28 30  1  0  0  0  0
 29 28  1  0  0  0  0
 31 28  1  0  0  0  0
 32 33  1  0  0  0  0
 32  4  1  0  0  0  0
 34 32  1  0  0  0  0
 35 32  1  0  0  0  0
 36  4  1  0  0  0  0
 36 38  1  0  0  0  0
 37 36  1  0  0  0  0
 39 36  1  0  0  0  0
 40 43  1  0  0  0  0
 40 42  1  0  0  0  0
 41 40  1  0  0  0  0
M  HYD  2   5   0   7   0
M  ZBO  1   2   0
M  END
