6
q = -2.0, confidence = 0.606

 21 20  0  0  0  0  0  0  0  0999 V2000
   -0.7782    0.0004   -1.4012 S   0  0  0  0  0  1  0  0  0  0  0  0
    2.4095    0.9650    2.6904 O   0  0  0  0  0  0  0  0  0  0  0  0
    0.2788    1.2690    3.3751 O   0  0  0  0  0  0  0  0  0  0  0  0
   -1.6825    4.6804    0.6146 O   0  0  0  0  0  0  0  0  0  0  0  0
   -2.6270    4.0334   -1.3392 O   0  0  0  0  0  0  0  0  0  0  0  0
    0.6225    1.2432    1.0501 C   0  0  0  0  0  3  0  0  0  0  0  0
   -0.2830    2.2527    0.8669 C   0  0  0  0  0  0  0  0  0  0  0  0
   -0.4110    2.9949    1.6731 H   0  0  0  0  0  0  0  0  0  0  0  0
   -1.1639    2.4904   -0.2570 C   0  0  0  0  0  0  0  0  0  0  0  0
   -1.5037    1.5993   -1.2375 C   0  0  0  0  0  0  0  0  0  0  0  0
   -2.2210    1.8630   -2.0257 H   0  0  0  0  0  0  0  0  0  0  0  0
    1.2297    1.1479    2.4156 C   0  0  0  0  0  0  0  0  0  0  0  0
    0.7364    1.0977    4.7213 C   0  0  0  0  0  0  0  0  0  0  0  0
   -0.1503    1.2392    5.3641 H   0  0  0  0  0  0  0  0  0  0  0  0
    1.5234    1.8371    4.9718 H   0  0  0  0  0  0  0  0  0  0  0  0
    1.1538    0.0798    4.8600 H   0  0  0  0  0  0  0  0  0  0  0  0
   -1.8329    3.8454   -0.2594 C   0  0  0  0  0  0  0  0  0  0  0  0
   -3.3114    5.2914   -1.3840 C   0  0  0  0  0  0  0  0  0  0  0  0
   -3.9075    5.2818   -2.3134 H   0  0  0  0  0  0  0  0  0  0  0  0
   -2.5888    6.1321   -1.3935 H   0  0  0  0  0  0  0  0  0  0  0  0
   -3.9708    5.4109   -0.5010 H   0  0  0  0  0  0  0  0  0  0  0  0
  1 10  1  0  0  0  0
  3 13  1  0  0  0  0
  5 17  1  0  0  0  0
  6 12  1  0  0  0  0
  7  6  2  0  0  0  0
  7  8  1  0  0  0  0
  9  7  1  0  0  0  0
 10  9  2  0  0  0  0
 11 10  1  0  0  0  0
 12  2  2  0  0  0  0
 12  3  1  0  0  0  0
 13 16  1  0  0  0  0
 13 15  1  0  0  0  0
 13 14  1  0  0  0  0
 17  9  1  0  0  0  0
 17  4  2  0  0  0  0
 18  5  1  0  0  0  0
 18 21  1  0  0  0  0
 19 18  1  0  0  0  0
 20 18  1  0  0  0  0
M  END
