5
q = -1.0, confidence = 0.0

 29 29  0  0  0  0  0  0  0  0999 V2000
   -1.8269   -1.5858   -0.5610 C   0  0  0  0  0  0  0  0  0  0  0  0
   -2.4557   -0.7664    0.4336 C   0  0  0  0  0  0  0  0  0  0  0  0
   -2.8762   -1.1220    1.3814 H   0  0  0  0  0  0  0  0  0  0  0  0
   -2.4684    0.5907   -0.0062 C   0  0  0  0  0  0  0  0  0  0  0  0
   -1.7784    0.6310   -1.2554 C   0  0  0  0  0  3  0  0  0  0  0  0
   -1.6282    1.5271   -1.8693 H   0  0  0  0  0  0  0  0  0  0  0  0
   -1.3912   -0.7037   -1.5951 C   0  0  0  0  0  0  0  0  0  0  0  0
   -0.8894   -1.0037   -2.5228 H   0  0  0  0  0  0  0  0  0  0  0  0
   -3.2039    1.7349    0.6414 C   0  0  0  0  0  0  0  0  0  0  0  0
   -3.2500    1.5561    1.7365 H   0  0  0  0  0  0  0  0  0  0  0  0
   -2.6443    2.6812    0.5024 H   0  0  0  0  0  0  0  0  0  0  0  0
   -4.5961    1.8703    0.0753 C   0  0  0  0  0  0  0  0  0  0  0  0
   -5.2506    0.9870    0.1921 H   0  0  0  0  0  0  0  0  0  0  0  0
   -5.0656    2.9603   -0.5545 C   0  0  0  0  0  0  0  0  0  0  0  0
   -4.4375    3.8565   -0.6933 H   0  0  0  0  0  0  0  0  0  0  0  0
   -6.0934    3.0018   -0.9472 H   0  0  0  0  0  0  0  0  0  0  0  0
   -1.8222   -3.1118   -0.6356 C   0  0  0  0  0  0  0  0  0  0  0  0
   -2.8237   -3.5006   -1.7515 C   0  0  0  0  0  0  0  0  0  0  0  0
   -2.8984   -4.6050   -1.8307 H   0  0  0  0  0  0  0  0  0  0  0  0
   -2.5067   -3.1062   -2.7380 H   0  0  0  0  0  0  0  0  0  0  0  0
   -3.8349   -3.1011   -1.5345 H   0  0  0  0  0  0  0  0  0  0  0  0
   -2.2923   -3.7355    0.6898 C   0  0  0  0  0  0  0  0  0  0  0  0
   -2.2815   -4.8413    0.6109 H   0  0  0  0  0  0  0  0  0  0  0  0
   -3.3301   -3.4297    0.9322 H   0  0  0  0  0  0  0  0  0  0  0  0
   -1.6336   -3.4389    1.5282 H   0  0  0  0  0  0  0  0  0  0  0  0
   -0.4282   -3.6593   -1.0009 C   0  0  0  0  0  0  0  0  0  0  0  0
    0.3098   -3.4124   -0.2131 H   0  0  0  0  0  0  0  0  0  0  0  0
   -0.0687   -3.2479   -1.9662 H   0  0  0  0  0  0  0  0  0  0  0  0
   -0.4668   -4.7625   -1.1072 H   0  0  0  0  0  0  0  0  0  0  0  0
  1  2  1  0  0  0  0
  2  3  1  0  0  0  0
  4  2  2  0  0  0  0
  4  9  1  0  0  0  0
  5  4  1  0  0  0  0
  6  5  1  0  0  0  0
  7  5  1  0  0  0  0
  7  1  2  0  0  0  0
  8  7  1  0  0  0  0
  9 10  1  0  0  0  0
 11  9  1  0  0  0  0
 12 13  1  0  0  0  0
 12  9  1  0  0  0  0
 14 12  2  0  0  0  0
 15 14  1  0  0  0  0
 16 14  1  0  0  0  0
 17  1  1  0  0  0  0
 17 22  1  0  0  0  0
 18 21  1  0  0  0  0
 18 17  1  0  0  0  0
 19 18  1  0  0  0  0
 20 18  1  0  0  0  0
 22 24  1  0  0  0  0
 22 25  1  0  0  0  0
 23 22  1  0  0  0  0
 26 17  1  0  0  0  0
 26 27  1  0  0  0  0
 28 26  1  0  0  0  0
 29 26  1  0  0  0  0
M  END
