2
q = 0.0, confidence = 0.954

 14 14  0  0  0  0  0  0  0  0999 V2000
   -1.9369   -1.1940   -1.3147 S   0  0  0  0  0  0  0  0  0  0  0  0
   -0.9718   -0.6537    0.0547 C   0  0  0  0  0  2  0  0  0  0  0  0
   -1.4116   -0.9952    1.0221 H   0  0  0  0  0  0  0  0  0  0  0  0
   -3.2196   -2.1298   -0.4875 C   0  0  0  0  0  0  0  0  0  0  0  0
   -2.9149   -3.1010    0.4889 C   0  0  0  0  0  0  0  0  0  0  0  0
   -1.8674   -3.2980    0.7601 H   0  0  0  0  0  0  0  0  0  0  0  0
   -3.9512   -3.8192    1.1037 C   0  0  0  0  0  0  0  0  0  0  0  0
   -3.7084   -4.5725    1.8687 H   0  0  0  0  0  0  0  0  0  0  0  0
   -5.2873   -3.5932    0.7360 C   0  0  0  0  0  0  0  0  0  0  0  0
   -6.0961   -4.1644    1.2159 H   0  0  0  0  0  0  0  0  0  0  0  0
   -5.5877   -2.6379   -0.2491 C   0  0  0  0  0  0  0  0  0  0  0  0
   -6.6332   -2.4550   -0.5406 H   0  0  0  0  0  0  0  0  0  0  0  0
   -4.5604   -1.9015   -0.8566 C   0  0  0  0  0  0  0  0  0  0  0  0
   -4.7920   -1.1383   -1.6151 H   0  0  0  0  0  0  0  0  0  0  0  0
  1  4  1  0  0  0  0
  1  2  1  0  0  0  0
  2  3  1  0  0  0  0
  4  5  1  0  0  0  0
  5  6  1  0  0  0  0
  5  7  2  0  0  0  0
  7  8  1  0  0  0  0
  9  7  1  0  0  0  0
  9 10  1  0  0  0  0
 11  9  2  0  0  0  0
 12 11  1  0  0  0  0
 13  4  2  0  0  0  0
 13 11  1  0  0  0  0
 14 13  1  0  0  0  0
M  END
