8
q = -1.0, confidence = 0.0

 28 29  0  0  0  0  0  0  0  0999 V2000
   -3.4483    1.3757    0.7582 S   0  0  0  0  0  0  0  0  0  0  0  0
   -3.6703    0.6068    1.9957 O   0  0  0  0  0  0  0  0  0  0  0  0
   -4.3195    2.4772    0.3191 O   0  0  0  0  0  0  0  0  0  0  0  0
   -3.6120    0.2305   -0.5455 N   0  0  0  0  0  0  0  0  0  0  0  0
   -3.0480   -1.0275   -0.5726 C   0  0  0  0  0  0  0  0  0  0  0  0
   -2.7602   -1.8935    0.5522 C   0  0  0  0  0  0  0  0  0  0  0  0
   -2.2796   -3.1391    0.0309 C   0  0  0  0  0  3  0  0  0  0  0  0
   -2.2163   -3.0365   -1.4037 C   0  0  0  0  0  3  0  0  0  0  0  0
   -2.6856   -1.7328   -1.7784 C   0  0  0  0  0  3  0  0  0  0  0  0
   -1.7519    1.9095    0.6939 C   0  0  0  0  0  0  0  0  0  0  0  0
   -0.8183    1.3611    1.5870 C   0  0  0  0  0  0  0  0  0  0  0  0
    0.5091    1.7998    1.5225 C   0  0  0  0  0  0  0  0  0  0  0  0
    0.9201    2.7620    0.5752 C   0  0  0  0  0  0  0  0  0  0  0  0
   -0.0402    3.2699   -0.3266 C   0  0  0  0  0  0  0  0  0  0  0  0
   -1.3760    2.8614   -0.2691 C   0  0  0  0  0  0  0  0  0  0  0  0
    2.3451    3.2434    0.5461 C   0  0  0  0  0  0  0  0  0  0  0  0
   -2.9144   -1.6224    1.6015 H   0  0  0  0  0  0  0  0  0  0  0  0
   -1.9694   -4.0040    0.6293 H   0  0  0  0  0  0  0  0  0  0  0  0
   -1.8589   -3.8110   -2.0930 H   0  0  0  0  0  0  0  0  0  0  0  0
   -2.7444   -1.3289   -2.7964 H   0  0  0  0  0  0  0  0  0  0  0  0
   -3.6972    0.7148   -1.4446 H   0  0  0  0  0  0  0  0  0  0  0  0
   -1.1394    0.6182    2.3291 H   0  0  0  0  0  0  0  0  0  0  0  0
    1.2553    1.3797    2.2125 H   0  0  0  0  0  0  0  0  0  0  0  0
    0.2705    4.0010   -1.0878 H   0  0  0  0  0  0  0  0  0  0  0  0
   -2.1283    3.2829   -0.9515 H   0  0  0  0  0  0  0  0  0  0  0  0
    2.4848    4.0800    1.2645 H   0  0  0  0  0  0  0  0  0  0  0  0
    3.0360    2.4297    0.8420 H   0  0  0  0  0  0  0  0  0  0  0  0
    2.6226    3.6067   -0.4612 H   0  0  0  0  0  0  0  0  0  0  0  0
  1  2  2  0  0  0  0
  3  1  2  0  0  0  0
  4  1  1  0  0  0  0
  5  4  1  0  0  0  0
  5  6  2  0  0  0  0
  6 17  1  0  0  0  0
  7  6  1  0  0  0  0
  7 18  1  0  0  0  0
  8  7  1  0  0  0  0
  9  8  1  0  0  0  0
  9  5  1  0  0  0  0
 10  1  1  0  0  0  0
 10 11  1  0  0  0  0
 11 22  1  0  0  0  0
 12 11  2  0  0  0  0
 12 23  1  0  0  0  0
 13 12  1  0  0  0  0
 14 15  1  0  0  0  0
 14 13  2  0  0  0  0
 15 10  2  0  0  0  0
 16 13  1  0  0  0  0
 16 27  1  0  0  0  0
 16 26  1  0  0  0  0
 19  8  1  0  0  0  0
 20  9  1  0  0  0  0
 21  4  1  0  0  0  0
 24 14  1  0  0  0  0
 25 15  1  0  0  0  0
 28 16  1  0  0  0  0
M  END
