1
q = 0.0, confidence = 1.0

 21 22  0  0  0  0  0  0  0  0999 V2000
   -0.2875    1.1015    0.0545 C   0  0  0  0  0  3  0  0  0  0  0  0
   -0.5088    2.4845    0.0623 C   0  0  0  0  0  0  0  0  0  0  0  0
    0.2056    3.3127    0.0390 H   0  0  0  0  0  0  0  0  0  0  0  0
   -1.5961    0.6134    0.0862 N   0  0  0  0  0  0  0  0  0  0  0  0
   -2.5422    1.5605    0.1070 N   0  0  0  0  0  2  0  0  0  0  0  0
   -1.8592    2.6890    0.0878 N   0  0  0  0  0  0  0  0  0  0  0  0
   -2.5778    3.9545    0.0991 C   0  0  0  0  0  0  0  0  0  0  0  0
   -3.6570    3.7312    0.1537 H   0  0  0  0  0  0  0  0  0  0  0  0
   -2.3567    4.5209   -0.8257 H   0  0  0  0  0  0  0  0  0  0  0  0
   -2.2721    4.5510    0.9795 H   0  0  0  0  0  0  0  0  0  0  0  0
   -2.0303   -0.7538    0.0671 C   0  0  0  0  0  0  0  0  0  0  0  0
   -1.2613   -1.7422    0.7025 C   0  0  0  0  0  0  0  0  0  0  0  0
   -0.3249   -1.4673    1.2093 H   0  0  0  0  0  0  0  0  0  0  0  0
   -1.6998   -3.0728    0.6651 C   0  0  0  0  0  0  0  0  0  0  0  0
   -1.0955   -3.8497    1.1559 H   0  0  0  0  0  0  0  0  0  0  0  0
   -2.8956   -3.4111    0.0129 C   0  0  0  0  0  0  0  0  0  0  0  0
   -3.2318   -4.4583   -0.0141 H   0  0  0  0  0  0  0  0  0  0  0  0
   -3.6606   -2.4106   -0.6083 C   0  0  0  0  0  0  0  0  0  0  0  0
   -4.5965   -2.6696   -1.1255 H   0  0  0  0  0  0  0  0  0  0  0  0
   -3.2316   -1.0774   -0.5879 C   0  0  0  0  0  0  0  0  0  0  0  0
   -3.8123   -0.2854   -1.0793 H   0  0  0  0  0  0  0  0  0  0  0  0
  1  2  2  0  0  0  0
  1  4  1  0  0  0  0
  2  6  1  0  0  0  0
  3  2  1  0  0  0  0
  4  5  1  0  0  0  0
  6  7  1  0  0  0  0
  6  5  1  0  0  0  0
  7  8  1  0  0  0  0
  7 10  1  0  0  0  0
  9  7  1  0  0  0  0
 11  4  1  0  0  0  0
 11 12  1  0  0  0  0
 12 13  1  0  0  0  0
 14 12  2  0  0  0  0
 14 15  1  0  0  0  0
 16 14  1  0  0  0  0
 17 16  1  0  0  0  0
 18 20  1  0  0  0  0
 18 16  2  0  0  0  0
 19 18  1  0  0  0  0
 20 11  2  0  0  0  0
 21 20  1  0  0  0  0
M  END
