1
q = 0.0, confidence = 1.0

 21 22  0  0  0  0  0  0  0  0999 V2000
    0.1131    0.2275    0.0389 C   0  0  0  0  0  3  0  0  0  0  0  0
   -1.0322   -0.5711   -0.0565 C   0  0  0  0  0  0  0  0  0  0  0  0
   -1.1316   -1.6458   -0.2273 H   0  0  0  0  0  0  0  0  0  0  0  0
   -0.4443    1.4885    0.2010 N   0  0  0  0  0  0  0  0  0  0  0  0
   -1.7730    1.5257    0.2157 N   0  0  0  0  0  2  0  0  0  0  0  0
   -2.1234    0.2564    0.0559 N   0  0  0  0  0  0  0  0  0  0  0  0
    0.2942    2.7330    0.3563 C   0  0  0  0  0  0  0  0  0  0  0  0
   -0.4316    3.5559    0.4752 H   0  0  0  0  0  0  0  0  0  0  0  0
    0.9286    2.8927   -0.5358 H   0  0  0  0  0  0  0  0  0  0  0  0
    0.9515    2.6564    1.2427 H   0  0  0  0  0  0  0  0  0  0  0  0
   -3.5093   -0.0945    0.0092 C   0  0  0  0  0  0  0  0  0  0  0  0
   -4.4452    0.8486   -0.4482 C   0  0  0  0  0  0  0  0  0  0  0  0
   -4.1008    1.8434   -0.7607 H   0  0  0  0  0  0  0  0  0  0  0  0
   -5.7990    0.4933   -0.4973 C   0  0  0  0  0  0  0  0  0  0  0  0
   -6.5367    1.2265   -0.8555 H   0  0  0  0  0  0  0  0  0  0  0  0
   -6.2129   -0.7900   -0.1041 C   0  0  0  0  0  0  0  0  0  0  0  0
   -7.2770   -1.0642   -0.1505 H   0  0  0  0  0  0  0  0  0  0  0  0
   -5.2666   -1.7214    0.3508 C   0  0  0  0  0  0  0  0  0  0  0  0
   -5.5855   -2.7243    0.6702 H   0  0  0  0  0  0  0  0  0  0  0  0
   -3.9092   -1.3781    0.4165 C   0  0  0  0  0  0  0  0  0  0  0  0
   -3.1724   -2.0963    0.8026 H   0  0  0  0  0  0  0  0  0  0  0  0
  1  4  1  0  0  0  0
  2  1  2  0  0  0  0
  2  6  1  0  0  0  0
  3  2  1  0  0  0  0
  4  5  1  0  0  0  0
  4  7  1  0  0  0  0
  6  5  1  0  0  0  0
  7  8  1  0  0  0  0
  7 10  1  0  0  0  0
  9  7  1  0  0  0  0
 11  6  1  0  0  0  0
 11 20  1  0  0  0  0
 12 11  2  0  0  0  0
 13 12  1  0  0  0  0
 14 12  1  0  0  0  0
 14 16  2  0  0  0  0
 15 14  1  0  0  0  0
 16 18  1  0  0  0  0
 17 16  1  0  0  0  0
 18 20  2  0  0  0  0
 18 19  1  0  0  0  0
 20 21  1  0  0  0  0
M  END
