2
q = 0.0, confidence = 0.988

 37 39  0  0  1  0  0  0  0  0999 V2000
   -0.7712    0.0269    0.3961 P   0  0  0  0  0  0  0  0  0  0  0  0
    2.2307    0.3659    1.5975 C   0  0  0  0  0  3  0  0  0  0  0  0
    3.2372    0.7271    1.3305 H   0  0  0  0  0  0  0  0  0  0  0  0
    2.0536   -1.0615    1.4945 C   0  0  0  0  0  3  0  0  0  0  0  0
    2.9444   -1.6144    1.1547 H   0  0  0  0  0  0  0  0  0  0  0  0
    1.0760   -1.8325    2.2635 C   0  0  0  0  0  0  0  0  0  0  0  0
    1.3782   -2.8581    2.5300 H   0  0  0  0  0  0  0  0  0  0  0  0
   -0.1417   -1.3951    2.6801 C   0  0  0  0  0  0  0  0  0  0  0  0
   -0.7708   -2.0551    3.2974 H   0  0  0  0  0  0  0  0  0  0  0  0
   -0.7064   -0.0535    2.2896 C   0  0  1  0  0  0  0  0  0  0  0  0
   -1.7428    0.0617    2.6596 H   0  0  0  0  0  0  0  0  0  0  0  0
    0.1458    1.0724    2.8149 C   0  0  0  0  0  0  0  0  0  0  0  0
   -0.3274    1.7871    3.5061 H   0  0  0  0  0  0  0  0  0  0  0  0
    1.4459    1.2480    2.4623 C   0  0  0  0  0  0  0  0  0  0  0  0
    1.9771    2.1299    2.8554 H   0  0  0  0  0  0  0  0  0  0  0  0
   -1.8944   -1.3458   -0.0708 C   0  0  0  0  0  0  0  0  0  0  0  0
   -1.7390   -1.9651   -1.3288 C   0  0  0  0  0  0  0  0  0  0  0  0
   -0.9516   -1.6094   -2.0118 H   0  0  0  0  0  0  0  0  0  0  0  0
   -2.5919   -3.0139   -1.7020 C   0  0  0  0  0  0  0  0  0  0  0  0
   -2.4621   -3.4908   -2.6852 H   0  0  0  0  0  0  0  0  0  0  0  0
   -3.5998   -3.4559   -0.8310 C   0  0  0  0  0  0  0  0  0  0  0  0
   -4.2637   -4.2822   -1.1272 H   0  0  0  0  0  0  0  0  0  0  0  0
   -3.7581   -2.8430    0.4217 C   0  0  0  0  0  0  0  0  0  0  0  0
   -4.5450   -3.1851    1.1108 H   0  0  0  0  0  0  0  0  0  0  0  0
   -2.9103   -1.7924    0.8027 C   0  0  0  0  0  0  0  0  0  0  0  0
   -3.0515   -1.3258    1.7887 H   0  0  0  0  0  0  0  0  0  0  0  0
   -1.6472    1.5864    0.0240 C   0  0  0  0  0  0  0  0  0  0  0  0
   -0.8799    2.7556   -0.1594 C   0  0  0  0  0  0  0  0  0  0  0  0
    0.2186    2.6892   -0.1466 H   0  0  0  0  0  0  0  0  0  0  0  0
   -1.5205    3.9822   -0.3813 C   0  0  0  0  0  0  0  0  0  0  0  0
   -0.9190    4.8913   -0.5307 H   0  0  0  0  0  0  0  0  0  0  0  0
   -2.9225    4.0471   -0.4304 C   0  0  0  0  0  0  0  0  0  0  0  0
   -3.4225    5.0103   -0.6139 H   0  0  0  0  0  0  0  0  0  0  0  0
   -3.6870    2.8816   -0.2607 C   0  0  0  0  0  0  0  0  0  0  0  0
   -4.7852    2.9281   -0.3138 H   0  0  0  0  0  0  0  0  0  0  0  0
   -3.0538    1.6506   -0.0346 C   0  0  0  0  0  0  0  0  0  0  0  0
   -3.6547    0.7358    0.0807 H   0  0  0  0  0  0  0  0  0  0  0  0
  1 10  1  0  0  0  0
  2 14  1  0  0  0  0
  3  2  1  0  0  0  0
  4  2  1  0  0  0  0
  4  6  1  0  0  0  0
  5  4  1  0  0  0  0
  6  7  1  0  0  0  0
  6  8  2  0  0  0  0
  8  9  1  0  0  0  0
 10 11  1  1  0  0  0
 10  8  1  0  0  0  0
 10 12  1  0  0  0  0
 12 13  1  0  0  0  0
 14 12  2  0  0  0  0
 14 15  1  0  0  0  0
 16  1  1  0  0  0  0
 16 25  1  0  0  0  0
 17 16  2  0  0  0  0
 18 17  1  0  0  0  0
 19 17  1  0  0  0  0
 19 21  2  0  0  0  0
 20 19  1  0  0  0  0
 21 23  1  0  0  0  0
 22 21  1  0  0  0  0
 23 25  2  0  0  0  0
 23 24  1  0  0  0  0
 25 26  1  0  0  0  0
 27  1  1  0  0  0  0
 28 29  1  0  0  0  0
 28 27  2  0  0  0  0
 30 28  1  0  0  0  0
 31 30  1  0  0  0  0
 32 30  2  0  0  0  0
 32 34  1  0  0  0  0
 33 32  1  0  0  0  0
 34 36  2  0  0  0  0
 35 34  1  0  0  0  0
 36 27  1  0  0  0  0
 36 37  1  0  0  0  0
M  END
