5
q = -1.0, confidence = 0.0

 34 36  0  0  0  0  0  0  0  0999 V2000
   -0.6671    1.2897   -2.5685 C   0  0  0  0  0  0  0  0  0  0  0  0
    0.7425    1.0660   -2.4402 C   0  0  0  0  0  0  0  0  0  0  0  0
    0.9527   -0.1997   -1.8078 C   0  0  0  0  0  0  0  0  0  0  0  0
    1.5251    1.7352   -2.8106 H   0  0  0  0  0  0  0  0  0  0  0  0
   -0.3402   -0.7281   -1.4557 C   0  0  0  0  0  3  0  0  0  0  0  0
   -1.3485    0.1613   -1.9525 C   0  0  0  0  0  0  0  0  0  0  0  0
   -1.4275    2.3384   -3.1589 C   0  0  0  0  0  0  0  0  0  0  0  0
   -2.8105    2.2554   -3.1262 C   0  0  0  0  0  0  0  0  0  0  0  0
   -3.4783    1.1492   -2.5157 C   0  0  0  0  0  0  0  0  0  0  0  0
   -2.7723    0.1108   -1.9297 C   0  0  0  0  0  0  0  0  0  0  0  0
   -0.5449   -1.6978   -0.9932 H   0  0  0  0  0  0  0  0  0  0  0  0
   -3.2871   -0.7366   -1.4545 H   0  0  0  0  0  0  0  0  0  0  0  0
   -4.5787    1.1288   -2.5076 H   0  0  0  0  0  0  0  0  0  0  0  0
   -3.4131    3.0595   -3.5748 H   0  0  0  0  0  0  0  0  0  0  0  0
   -0.9182    3.1968   -3.6205 H   0  0  0  0  0  0  0  0  0  0  0  0
    2.2524   -0.8075   -1.4835 C   0  0  0  0  0  0  0  0  0  0  0  0
    3.4473   -0.0499   -1.4794 C   0  0  0  0  0  0  0  0  0  0  0  0
    4.6758   -0.6148   -1.1416 C   0  0  0  0  0  0  0  0  0  0  0  0
    4.7826   -1.9900   -0.7844 C   0  0  0  0  0  0  0  0  0  0  0  0
    5.9963   -2.5541   -0.4407 N   0  0  0  0  0  0  0  0  0  0  0  0
    7.1861   -1.7298   -0.3863 C   0  0  0  0  0  0  0  0  0  0  0  0
    7.1048   -0.9140    0.3694 H   0  0  0  0  0  0  0  0  0  0  0  0
    8.0546   -2.3573   -0.1164 H   0  0  0  0  0  0  0  0  0  0  0  0
    7.4054   -1.2533   -1.3675 H   0  0  0  0  0  0  0  0  0  0  0  0
    6.0560   -3.9369   -0.0150 C   0  0  0  0  0  0  0  0  0  0  0  0
    5.6881   -4.6306   -0.8038 H   0  0  0  0  0  0  0  0  0  0  0  0
    7.1042   -4.2076    0.2062 H   0  0  0  0  0  0  0  0  0  0  0  0
    5.4527   -4.1261    0.9033 H   0  0  0  0  0  0  0  0  0  0  0  0
    3.5814   -2.7565   -0.7914 C   0  0  0  0  0  0  0  0  0  0  0  0
    2.3607   -2.1739   -1.1363 C   0  0  0  0  0  0  0  0  0  0  0  0
    1.4624   -2.8096   -1.1518 H   0  0  0  0  0  0  0  0  0  0  0  0
    3.6018   -3.8230   -0.5341 H   0  0  0  0  0  0  0  0  0  0  0  0
    5.5631    0.0306   -1.1362 H   0  0  0  0  0  0  0  0  0  0  0  0
    3.4055    1.0270   -1.6949 H   0  0  0  0  0  0  0  0  0  0  0  0
  1  2  1  0  0  0  0
  1  6  1  0  0  0  0
  2  3  2  0  0  0  0
  3 16  1  0  0  0  0
  3  5  1  0  0  0  0
  4  2  1  0  0  0  0
  5 11  1  0  0  0  0
  6 10  2  0  0  0  0
  6  5  1  0  0  0  0
  7  8  1  0  0  0  0
  7  1  2  0  0  0  0
  8  9  2  0  0  0  0
  9 13  1  0  0  0  0
  9 10  1  0  0  0  0
 10 12  1  0  0  0  0
 14  8  1  0  0  0  0
 15  7  1  0  0  0  0
 16 17  2  0  0  0  0
 16 30  1  0  0  0  0
 17 18  1  0  0  0  0
 18 33  1  0  0  0  0
 18 19  2  0  0  0  0
 19 20  1  0  0  0  0
 20 21  1  0  0  0  0
 20 25  1  0  0  0  0
 21 23  1  0  0  0  0
 21 22  1  0  0  0  0
 24 21  1  0  0  0  0
 25 27  1  0  0  0  0
 25 28  1  0  0  0  0
 26 25  1  0  0  0  0
 29 19  1  0  0  0  0
 29 32  1  0  0  0  0
 30 29  2  0  0  0  0
 31 30  1  0  0  0  0
 34 17  1  0  0  0  0
M  END
