3
q = 0.0, confidence = 0.99

 22 22  0  0  0  0  0  0  0  0999 V2000
   -0.7122    1.3190    1.4355 C   0  0  0  0  0  0  0  0  0  0  0  0
   -1.2183    0.9615    2.3436 H   0  0  0  0  0  0  0  0  0  0  0  0
    0.6896    1.6180    1.4742 C   0  0  0  0  0  3  0  0  0  0  0  0
    1.2458    1.4723    2.4118 H   0  0  0  0  0  0  0  0  0  0  0  0
    1.3973    1.9718    0.2831 C   0  0  0  0  0  3  0  0  0  0  0  0
    2.4869    2.1092    0.3044 H   0  0  0  0  0  0  0  0  0  0  0  0
    0.6869    2.0054   -0.9678 C   0  0  0  0  0  0  0  0  0  0  0  0
    1.2469    2.1505   -1.9026 H   0  0  0  0  0  0  0  0  0  0  0  0
   -0.6894    1.6545   -1.0260 C   0  0  0  0  0  0  0  0  0  0  0  0
   -1.1832    1.5649   -2.0049 H   0  0  0  0  0  0  0  0  0  0  0  0
   -1.3950    1.2648    0.1784 C   0  0  0  0  0  0  0  0  0  0  0  0
   -2.8025    0.7209    0.0975 C   0  0  0  0  0  0  0  0  0  0  0  0
   -3.4549    1.4942   -0.3623 H   0  0  0  0  0  0  0  0  0  0  0  0
   -3.1806    0.5620    1.1281 H   0  0  0  0  0  0  0  0  0  0  0  0
   -2.9469   -0.5932   -0.6944 C   0  0  0  0  0  0  0  0  0  0  0  0
   -4.0152   -0.8922   -0.6742 H   0  0  0  0  0  0  0  0  0  0  0  0
   -2.6884   -0.4471   -1.7650 H   0  0  0  0  0  0  0  0  0  0  0  0
   -2.1155   -1.7550   -0.1623 C   0  0  0  0  0  0  0  0  0  0  0  0
   -2.1197   -1.7805    0.9518 H   0  0  0  0  0  0  0  0  0  0  0  0
   -2.5348   -2.7148   -0.5338 H   0  0  0  0  0  0  0  0  0  0  0  0
   -0.7629   -1.6651   -0.6408 O   0  0  0  0  0  0  0  0  0  0  0  0
   -0.1861   -2.2554   -0.0721 H   0  0  0  0  0  0  0  0  0  0  0  0
  1  3  1  0  0  0  0
  1  2  1  0  0  0  0
  3  4  1  0  0  0  0
  5  6  1  0  0  0  0
  5  3  1  0  0  0  0
  7  5  1  0  0  0  0
  8  7  1  0  0  0  0
  9  7  2  0  0  0  0
  9 11  1  0  0  0  0
 10  9  1  0  0  0  0
 11  1  2  0  0  0  0
 12 11  1  0  0  0  0
 12 14  1  0  0  0  0
 13 12  1  0  0  0  0
 15 16  1  0  0  0  0
 15 18  1  0  0  0  0
 15 12  1  0  0  0  0
 17 15  1  0  0  0  0
 18 19  1  0  0  0  0
 20 18  1  0  0  0  0
 21 18  1  0  0  0  0
 21 22  1  0  0  0  0
M  END
