9
q = 0.0, confidence = 0.994

 59 63  0  0  1  0  0  0  0  0999 V2000
   -2.4939   -3.7785    1.2500 C   0  0  0  0  0  0  0  0  0  0  0  0
   -2.0873   -4.4165    0.4416 H   0  0  0  0  0  0  0  0  0  0  0  0
   -3.5417   -4.0827    1.4421 H   0  0  0  0  0  0  0  0  0  0  0  0
   -1.9086   -3.9609    2.1727 H   0  0  0  0  0  0  0  0  0  0  0  0
   -2.4566   -2.3188    0.8499 C   0  0  0  0  0  0  0  0  0  0  0  0
   -3.0594   -2.1304   -0.0601 H   0  0  0  0  0  0  0  0  0  0  0  0
   -2.8266   -1.6543    1.6553 H   0  0  0  0  0  0  0  0  0  0  0  0
   -1.0898   -1.9700    0.5434 O   0  0  0  0  0  0  0  0  0  0  0  0
   -0.7228   -0.7236    0.2479 C   0  0  0  0  0  2  0  0  0  0  0  0
    0.7101   -0.7331   -0.0078 C   0  0  0  0  0  0  0  0  0  0  0  0
    1.7850   -1.3328    0.6286 C   0  0  0  0  0  0  0  0  0  0  0  0
    1.9586   -2.0025    1.8917 C   0  0  0  0  0  0  0  0  0  0  0  0
    0.8482   -2.2801    2.8925 C   0  0  0  0  0  0  0  0  0  0  0  0
    0.2259   -3.1251    2.5256 H   0  0  0  0  0  0  0  0  0  0  0  0
    0.1585   -1.4190    3.0106 H   0  0  0  0  0  0  0  0  0  0  0  0
    1.6121   -2.6331    4.1883 C   0  0  0  0  0  0  0  0  0  0  0  0
    1.7456   -1.7142    4.7959 H   0  0  0  0  0  0  0  0  0  0  0  0
    1.0791   -3.3687    4.8217 H   0  0  0  0  0  0  0  0  0  0  0  0
    2.9998   -3.1279    3.7145 C   0  0  0  0  0  0  0  0  0  0  0  0
    3.8220   -2.8739    4.4167 H   0  0  0  0  0  0  0  0  0  0  0  0
    3.0310   -4.2389    3.6058 H   0  0  0  0  0  0  0  0  0  0  0  0
    3.1494   -2.4755    2.3688 C   0  0  0  0  0  0  0  0  0  0  0  0
    4.1028   -2.4224    1.8220 H   0  0  0  0  0  0  0  0  0  0  0  0
    1.6033   -0.0584   -1.0652 C   0  0  2  0  0  0  0  0  0  0  0  0
    2.8246   -0.8091   -0.3479 C   0  0  2  0  0  0  0  0  0  0  0  0
    3.6809   -1.7685   -1.1857 C   0  0  0  0  0  0  0  0  0  0  0  0
    4.0885   -2.5751   -0.5396 H   0  0  0  0  0  0  0  0  0  0  0  0
    3.0912   -2.2407   -1.9960 H   0  0  0  0  0  0  0  0  0  0  0  0
    4.8099   -0.8746   -1.7197 C   0  0  0  0  0  0  0  0  0  0  0  0
    5.6729   -1.4470   -2.1150 H   0  0  0  0  0  0  0  0  0  0  0  0
    4.4128   -0.2534   -2.5509 H   0  0  0  0  0  0  0  0  0  0  0  0
    5.1650    0.0134   -0.5185 C   0  0  0  0  0  0  0  0  0  0  0  0
    5.7062    0.9422   -0.7874 H   0  0  0  0  0  0  0  0  0  0  0  0
    5.8075   -0.5476    0.1925 H   0  0  0  0  0  0  0  0  0  0  0  0
    3.7968    0.3117    0.1450 C   0  0  1  0  0  0  0  0  0  0  0  0
    3.8794    0.3440    1.2519 H   0  0  0  0  0  0  0  0  0  0  0  0
    3.1310    1.5790   -0.3283 C   0  0  0  0  0  0  0  0  0  0  0  0
    1.9493    1.3955   -0.9786 C   0  0  0  0  0  0  0  0  0  0  0  0
    1.3100    2.1857   -1.3844 H   0  0  0  0  0  0  0  0  0  0  0  0
    3.7647    2.7253   -0.0239 O   0  0  0  0  0  0  0  0  0  0  0  0
    3.1304    3.9482   -0.4222 C   0  0  0  0  0  0  0  0  0  0  0  0
    2.9910    3.9421   -1.5276 H   0  0  0  0  0  0  0  0  0  0  0  0
    2.1207    3.9984    0.0429 H   0  0  0  0  0  0  0  0  0  0  0  0
    4.0039    5.1037    0.0219 C   0  0  0  0  0  0  0  0  0  0  0  0
    4.1312    5.0987    1.1225 H   0  0  0  0  0  0  0  0  0  0  0  0
    3.5406    6.0663   -0.2708 H   0  0  0  0  0  0  0  0  0  0  0  0
    5.0072    5.0434   -0.4444 H   0  0  0  0  0  0  0  0  0  0  0  0
    1.1810   -0.4702   -2.8328 S   0  0  0  0  0  0  0  0  0  0  0  0
   -0.0674   -1.7451   -2.6776 C   0  0  0  0  0  0  0  0  0  0  0  0
    0.2438   -3.0596   -2.2755 C   0  0  0  0  0  0  0  0  0  0  0  0
    1.2821   -3.3234   -2.0309 H   0  0  0  0  0  0  0  0  0  0  0  0
   -0.7688   -4.0242   -2.1779 C   0  0  0  0  0  0  0  0  0  0  0  0
   -0.5153   -5.0474   -1.8603 H   0  0  0  0  0  0  0  0  0  0  0  0
   -2.0979   -3.6925   -2.4911 C   0  0  0  0  0  0  0  0  0  0  0  0
   -2.8893   -4.4540   -2.4171 H   0  0  0  0  0  0  0  0  0  0  0  0
   -2.4130   -2.3865   -2.8985 C   0  0  0  0  0  0  0  0  0  0  0  0
   -3.4522   -2.1130   -3.1359 H   0  0  0  0  0  0  0  0  0  0  0  0
   -1.4032   -1.4155   -2.9890 C   0  0  0  0  0  0  0  0  0  0  0  0
   -1.6410   -0.3884   -3.2999 H   0  0  0  0  0  0  0  0  0  0  0  0
  1  3  1  0  0  0  0
  1  4  1  0  0  0  0
  2  1  1  0  0  0  0
  5  1  1  0  0  0  0
  5  7  1  0  0  0  0
  6  5  1  0  0  0  0
  8  5  1  0  0  0  0
  9  8  1  0  0  0  0
 10  9  1  0  0  0  0
 10 11  2  0  0  0  0
 11 12  1  0  0  0  0
 12 22  2  0  0  0  0
 12 13  1  0  0  0  0
 13 15  1  0  0  0  0
 13 16  1  0  0  0  0
 14 13  1  0  0  0  0
 16 17  1  0  0  0  0
 16 18  1  0  0  0  0
 19 16  1  0  0  0  0
 19 20  1  0  0  0  0
 21 19  1  0  0  0  0
 22 19  1  0  0  0  0
 23 22  1  0  0  0  0
 24 48  1  6  0  0  0
 24 38  1  0  0  0  0
 24 25  1  0  0  0  0
 24 10  1  0  0  0  0
 25 35  1  0  0  0  0
 25 11  1  1  0  0  0
 26 27  1  0  0  0  0
 26 25  1  0  0  0  0
 28 26  1  0  0  0  0
 29 26  1  0  0  0  0
 29 32  1  0  0  0  0
 30 29  1  0  0  0  0
 31 29  1  0  0  0  0
 32 35  1  0  0  0  0
 32 34  1  0  0  0  0
 33 32  1  0  0  0  0
 35 36  1  1  0  0  0
 37 40  1  0  0  0  0
 37 35  1  0  0  0  0
 38 37  2  0  0  0  0
 39 38  1  0  0  0  0
 41 40  1  0  0  0  0
 41 44  1  0  0  0  0
 41 43  1  0  0  0  0
 42 41  1  0  0  0  0
 44 45  1  0  0  0  0
 46 44  1  0  0  0  0
 47 44  1  0  0  0  0
 48 49  1  0  0  0  0
 49 50  1  0  0  0  0
 50 52  2  0  0  0  0
 50 51  1  0  0  0  0
 52 53  1  0  0  0  0
 54 55  1  0  0  0  0
 54 52  1  0  0  0  0
 56 54  2  0  0  0  0
 57 56  1  0  0  0  0
 58 56  1  0  0  0  0
 58 49  2  0  0  0  0
 59 58  1  0  0  0  0
M  END
