6
q = 0.0, confidence = 0.998

 62 64  0  0  1  0  0  0  0  0999 V2000
    0.1017   -1.1860    0.1697 N   0  0  0  0  0  0  0  0  0  0  0  0
    2.3621   -0.4841    0.1701 C   0  0  2  0  0  0  0  0  0  0  0  0
   -1.3376   -0.9993    0.1937 C   0  0  0  0  0  0  0  0  0  0  0  0
    0.7344   -2.5334    0.3861 C   0  0  1  0  0  0  0  0  0  0  0  0
   -1.9538   -0.6093    1.4101 C   0  0  0  0  0  0  0  0  0  0  0  0
    0.8943   -0.1235    0.0423 C   0  0  0  0  0  2  0  0  0  0  0  0
    2.6711   -1.5398   -0.9551 C   0  0  1  0  0  0  0  0  0  0  0  0
    3.7087   -1.8885   -0.7711 H   0  0  0  0  0  0  0  0  0  0  0  0
    1.7125   -2.7488   -0.7896 C   0  0  0  0  0  0  0  0  0  0  0  0
    1.1341   -2.9206   -1.7196 H   0  0  0  0  0  0  0  0  0  0  0  0
    2.2736   -3.6848   -0.5943 H   0  0  0  0  0  0  0  0  0  0  0  0
   -3.3547   -0.4694    1.4180 C   0  0  0  0  0  0  0  0  0  0  0  0
   -3.8565   -0.1637    2.3485 H   0  0  0  0  0  0  0  0  0  0  0  0
   -2.0822   -1.1898   -0.9974 C   0  0  0  0  0  0  0  0  0  0  0  0
   -1.3128    1.2175    3.0200 C   0  0  0  0  0  0  0  0  0  0  0  0
   -1.0167    1.8580    2.1624 H   0  0  0  0  0  0  0  0  0  0  0  0
   -0.6737    1.4781    3.8886 H   0  0  0  0  0  0  0  0  0  0  0  0
   -2.3601    1.4735    3.2813 H   0  0  0  0  0  0  0  0  0  0  0  0
    1.5930   -2.4147    1.6657 C   0  0  0  0  0  0  0  0  0  0  0  0
    0.9297   -2.3316    2.5488 H   0  0  0  0  0  0  0  0  0  0  0  0
    2.1558   -3.3630    1.7795 H   0  0  0  0  0  0  0  0  0  0  0  0
   -1.1662   -0.2742    2.6704 C   0  0  0  0  0  0  0  0  0  0  0  0
   -0.0948   -0.4441    2.4539 H   0  0  0  0  0  0  0  0  0  0  0  0
   -3.4782   -1.0330   -0.9340 C   0  0  0  0  0  0  0  0  0  0  0  0
   -4.0761   -1.1657   -1.8477 H   0  0  0  0  0  0  0  0  0  0  0  0
   -1.3989   -1.4268   -2.3362 C   0  0  0  0  0  0  0  0  0  0  0  0
   -0.3692   -1.7727   -2.1246 H   0  0  0  0  0  0  0  0  0  0  0  0
    2.5362   -1.2018    1.5448 C   0  0  0  0  0  0  0  0  0  0  0  0
    3.5969   -1.5066    1.6491 H   0  0  0  0  0  0  0  0  0  0  0  0
    2.3356   -0.4748    2.3543 H   0  0  0  0  0  0  0  0  0  0  0  0
   -1.5494   -1.1821    3.8500 C   0  0  0  0  0  0  0  0  0  0  0  0
   -2.6090   -1.0401    4.1463 H   0  0  0  0  0  0  0  0  0  0  0  0
   -0.9238   -0.9542    4.7372 H   0  0  0  0  0  0  0  0  0  0  0  0
   -1.4156   -2.2553    3.6020 H   0  0  0  0  0  0  0  0  0  0  0  0
    3.2513    0.7938    0.0610 C   0  0  0  0  0  0  0  0  0  0  0  0
    2.9228    1.2969   -0.8757 H   0  0  0  0  0  0  0  0  0  0  0  0
   -4.1143   -0.6919    0.2653 C   0  0  0  0  0  0  0  0  0  0  0  0
   -5.2081   -0.5757    0.2951 H   0  0  0  0  0  0  0  0  0  0  0  0
   -0.3022   -3.6443    0.4884 C   0  0  0  0  0  0  0  0  0  0  0  0
   -0.9989   -3.4747    1.3318 H   0  0  0  0  0  0  0  0  0  0  0  0
    0.2169   -4.6086    0.6558 H   0  0  0  0  0  0  0  0  0  0  0  0
   -0.9034   -3.7326   -0.4367 H   0  0  0  0  0  0  0  0  0  0  0  0
    4.7527    0.4984   -0.0566 C   0  0  0  0  0  0  0  0  0  0  0  0
    5.1380   -0.0311    0.8400 H   0  0  0  0  0  0  0  0  0  0  0  0
    5.3202    1.4470   -0.1384 H   0  0  0  0  0  0  0  0  0  0  0  0
    5.0076   -0.1128   -0.9446 H   0  0  0  0  0  0  0  0  0  0  0  0
   -1.2756   -0.0905   -3.0920 C   0  0  0  0  0  0  0  0  0  0  0  0
   -2.2760    0.3152   -3.3469 H   0  0  0  0  0  0  0  0  0  0  0  0
   -0.7025   -0.2184   -4.0334 H   0  0  0  0  0  0  0  0  0  0  0  0
   -0.7654    0.6753   -2.4686 H   0  0  0  0  0  0  0  0  0  0  0  0
   -2.0764   -2.5066   -3.1904 C   0  0  0  0  0  0  0  0  0  0  0  0
   -2.1733   -3.4650   -2.6402 H   0  0  0  0  0  0  0  0  0  0  0  0
   -1.4862   -2.6963   -4.1097 H   0  0  0  0  0  0  0  0  0  0  0  0
   -3.0922   -2.2015   -3.5151 H   0  0  0  0  0  0  0  0  0  0  0  0
    3.0016    1.7932    1.2001 C   0  0  0  0  0  0  0  0  0  0  0  0
    1.9177    2.0070    1.3243 H   0  0  0  0  0  0  0  0  0  0  0  0
    3.4970    2.7590    0.9779 H   0  0  0  0  0  0  0  0  0  0  0  0
    3.4008    1.4302    2.1698 H   0  0  0  0  0  0  0  0  0  0  0  0
    2.6002   -0.9570   -2.3720 C   0  0  0  0  0  0  0  0  0  0  0  0
    1.6049   -0.5127   -2.5750 H   0  0  0  0  0  0  0  0  0  0  0  0
    2.7778   -1.7523   -3.1244 H   0  0  0  0  0  0  0  0  0  0  0  0
    3.3559   -0.1662   -2.5410 H   0  0  0  0  0  0  0  0  0  0  0  0
  1  3  1  0  0  0  0
  1  4  1  0  0  0  0
  2 35  1  6  0  0  0
  2 28  1  0  0  0  0
  3  5  1  0  0  0  0
  4 39  1  1  0  0  0
  4 19  1  0  0  0  0
  5 12  2  0  0  0  0
  5 22  1  0  0  0  0
  6  1  1  0  0  0  0
  6  2  1  0  0  0  0
  7  9  1  0  0  0  0
  7  8  1  1  0  0  0
  7  2  1  0  0  0  0
  9 11  1  0  0  0  0
  9  4  1  0  0  0  0
 10  9  1  0  0  0  0
 12 13  1  0  0  0  0
 14 24  1  0  0  0  0
 14  3  2  0  0  0  0
 15 18  1  0  0  0  0
 15 17  1  0  0  0  0
 16 15  1  0  0  0  0
 19 21  1  0  0  0  0
 19 20  1  0  0  0  0
 22 15  1  0  0  0  0
 22 31  1  0  0  0  0
 23 22  1  0  0  0  0
 24 37  2  0  0  0  0
 25 24  1  0  0  0  0
 26 27  1  0  0  0  0
 26 14  1  0  0  0  0
 28 29  1  0  0  0  0
 28 19  1  0  0  0  0
 28 30  1  0  0  0  0
 31 32  1  0  0  0  0
 31 33  1  0  0  0  0
 34 31  1  0  0  0  0
 35 55  1  0  0  0  0
 36 35  1  0  0  0  0
 37 38  1  0  0  0  0
 37 12  1  0  0  0  0
 39 41  1  0  0  0  0
 39 40  1  0  0  0  0
 42 39  1  0  0  0  0
 43 35  1  0  0  0  0
 43 44  1  0  0  0  0
 45 43  1  0  0  0  0
 46 43  1  0  0  0  0
 47 50  1  0  0  0  0
 47 26  1  0  0  0  0
 48 47  1  0  0  0  0
 49 47  1  0  0  0  0
 51 52  1  0  0  0  0
 51 26  1  0  0  0  0
 53 51  1  0  0  0  0
 54 51  1  0  0  0  0
 55 56  1  0  0  0  0
 55 58  1  0  0  0  0
 57 55  1  0  0  0  0
 59  7  1  0  0  0  0
 60 59  1  0  0  0  0
 61 59  1  0  0  0  0
 62 59  1  0  0  0  0
M  END
