2
q = 0.0, confidence = 0.994

 37 39  0  0  0  0  0  0  0  0999 V2000
    3.2796   -0.0379   -0.0241 P   0  0  0  0  0  4  0  0  0  0  0  0
    1.8388    0.1728   -0.9563 C   0  0  0  0  0  3  0  0  0  0  0  0
    3.9325    2.6160   -0.3581 C   0  0  0  0  0  0  0  0  0  0  0  0
    4.7722    3.7015   -0.6419 C   0  0  0  0  0  0  0  0  0  0  0  0
    6.1212    3.4867   -0.9729 C   0  0  0  0  0  0  0  0  0  0  0  0
    6.6360    2.1820   -1.0212 C   0  0  0  0  0  0  0  0  0  0  0  0
    5.8089    1.0861   -0.7284 C   0  0  0  0  0  0  0  0  0  0  0  0
    4.4601    1.3042   -0.3914 C   0  0  0  0  0  0  0  0  0  0  0  0
    2.0733   -1.0307    2.2636 C   0  0  0  0  0  0  0  0  0  0  0  0
    1.7019   -1.0082    3.6135 C   0  0  0  0  0  0  0  0  0  0  0  0
    2.1570    0.0219    4.4548 C   0  0  0  0  0  0  0  0  0  0  0  0
    2.9941    1.0275    3.9511 C   0  0  0  0  0  0  0  0  0  0  0  0
    3.3700    1.0188    2.5977 C   0  0  0  0  0  0  0  0  0  0  0  0
    2.9038   -0.0058    1.7575 C   0  0  0  0  0  0  0  0  0  0  0  0
    3.4883   -2.5400   -1.2485 C   0  0  0  0  0  0  0  0  0  0  0  0
    4.0678   -3.8023   -1.4529 C   0  0  0  0  0  0  0  0  0  0  0  0
    5.2108   -4.1813   -0.7330 C   0  0  0  0  0  0  0  0  0  0  0  0
    5.7718   -3.3077    0.2152 C   0  0  0  0  0  0  0  0  0  0  0  0
    5.1955   -2.0497    0.4350 C   0  0  0  0  0  0  0  0  0  0  0  0
    4.0660   -1.6591   -0.3160 C   0  0  0  0  0  0  0  0  0  0  0  0
    1.7640    0.6130   -2.1964 C   0  0  0  0  0  0  0  0  0  0  0  0
    1.6220    1.0068   -3.3016 O   0  0  0  0  0  0  0  0  0  0  0  0
    2.8645    2.7712   -0.1209 H   0  0  0  0  0  0  0  0  0  0  0  0
    4.3653    4.7235   -0.6139 H   0  0  0  0  0  0  0  0  0  0  0  0
    6.7734    4.3427   -1.2041 H   0  0  0  0  0  0  0  0  0  0  0  0
    7.6884    2.0123   -1.2945 H   0  0  0  0  0  0  0  0  0  0  0  0
    6.2107    0.0635   -0.7773 H   0  0  0  0  0  0  0  0  0  0  0  0
    1.6995   -1.8270    1.6006 H   0  0  0  0  0  0  0  0  0  0  0  0
    1.0302   -1.7867    4.0029 H   0  0  0  0  0  0  0  0  0  0  0  0
    1.8508    0.0405    5.5118 H   0  0  0  0  0  0  0  0  0  0  0  0
    3.3498    1.8346    4.6089 H   0  0  0  0  0  0  0  0  0  0  0  0
    4.0119    1.8174    2.1990 H   0  0  0  0  0  0  0  0  0  0  0  0
    2.5623   -2.2469   -1.7681 H   0  0  0  0  0  0  0  0  0  0  0  0
    3.6112   -4.4978   -2.1729 H   0  0  0  0  0  0  0  0  0  0  0  0
    5.6610   -5.1722   -0.8976 H   0  0  0  0  0  0  0  0  0  0  0  0
    6.6553   -3.6144    0.7953 H   0  0  0  0  0  0  0  0  0  0  0  0
    5.6116   -1.3785    1.2027 H   0  0  0  0  0  0  0  0  0  0  0  0
  1 14  1  0  0  0  0
  2  1  1  0  0  0  0
  3 23  1  0  0  0  0
  4 24  1  0  0  0  0
  4  3  2  0  0  0  0
  5  4  1  0  0  0  0
  6  5  2  0  0  0  0
  6  7  1  0  0  0  0
  7  8  2  0  0  0  0
  8  3  1  0  0  0  0
  8  1  1  0  0  0  0
  9 10  1  0  0  0  0
 10 29  1  0  0  0  0
 10 11  2  0  0  0  0
 11 30  1  0  0  0  0
 12 11  1  0  0  0  0
 12 31  1  0  0  0  0
 13 12  2  0  0  0  0
 14  9  2  0  0  0  0
 14 13  1  0  0  0  0
 15 20  1  0  0  0  0
 16 15  2  0  0  0  0
 16 17  1  0  0  0  0
 17 18  2  0  0  0  0
 18 19  1  0  0  0  0
 18 36  1  0  0  0  0
 19 37  1  0  0  0  0
 20  1  1  0  0  0  0
 20 19  2  0  0  0  0
 21  2  2  0  0  0  0
 22 21  2  0  0  0  0
 25  5  1  0  0  0  0
 26  6  1  0  0  0  0
 27  7  1  0  0  0  0
 28  9  1  0  0  0  0
 32 13  1  0  0  0  0
 33 15  1  0  0  0  0
 34 16  1  0  0  0  0
 35 17  1  0  0  0  0
M  END
