6
q = 0.0, confidence = 0.998

 35 36  0  0  0  0  0  0  0  0999 V2000
    2.2502    1.7214    0.9044 O   0  0  0  0  0  0  0  0  0  0  0  0
   -1.6630    2.6048    0.2827 N   0  0  0  0  0  0  0  0  0  0  0  0
    0.2579    2.8414   -0.6713 N   0  0  0  0  0  0  0  0  0  0  0  0
    3.8211    1.8771   -0.7795 N   0  0  0  0  0  0  0  0  0  0  0  0
    3.9379    2.1533   -1.7575 H   0  0  0  0  0  0  0  0  0  0  0  0
   -0.6019    1.8931   -0.1848 C   0  0  0  0  0  2  0  0  0  0  0  0
   -1.4654    3.9697    0.1225 C   0  0  0  0  0  0  0  0  0  0  0  0
   -2.2008    4.7179    0.4294 H   0  0  0  0  0  0  0  0  0  0  0  0
   -0.2439    4.1215   -0.4804 C   0  0  0  0  0  0  0  0  0  0  0  0
    0.2895    5.0217   -0.8002 H   0  0  0  0  0  0  0  0  0  0  0  0
    1.5337    2.5282   -1.2752 C   0  0  0  0  0  0  0  0  0  0  0  0
    1.9095    3.4252   -1.8060 H   0  0  0  0  0  0  0  0  0  0  0  0
    1.3851    1.7310   -2.0341 H   0  0  0  0  0  0  0  0  0  0  0  0
    2.5682    2.0208   -0.2416 C   0  0  0  0  0  0  0  0  0  0  0  0
   -2.8540    1.9842    0.9052 C   0  0  0  0  0  0  0  0  0  0  0  0
   -2.8045    0.9256    0.5766 H   0  0  0  0  0  0  0  0  0  0  0  0
   -2.7467    2.0361    2.4302 C   0  0  0  0  0  0  0  0  0  0  0  0
   -3.6046    1.5026    2.8852 H   0  0  0  0  0  0  0  0  0  0  0  0
   -2.7641    3.0813    2.8006 H   0  0  0  0  0  0  0  0  0  0  0  0
   -1.8084    1.5598    2.7780 H   0  0  0  0  0  0  0  0  0  0  0  0
   -4.1406    2.6043    0.3653 C   0  0  0  0  0  0  0  0  0  0  0  0
   -4.1607    2.5876   -0.7412 H   0  0  0  0  0  0  0  0  0  0  0  0
   -4.2754    3.6490    0.7122 H   0  0  0  0  0  0  0  0  0  0  0  0
   -5.0086    2.0188    0.7230 H   0  0  0  0  0  0  0  0  0  0  0  0
    4.9607    1.2710   -0.1981 C   0  0  0  0  0  0  0  0  0  0  0  0
    5.0605    0.9983    1.1829 C   0  0  0  0  0  0  0  0  0  0  0  0
    4.2356    1.2717    1.8501 H   0  0  0  0  0  0  0  0  0  0  0  0
    6.2176    0.3764    1.6753 C   0  0  0  0  0  0  0  0  0  0  0  0
    6.2919    0.1695    2.7535 H   0  0  0  0  0  0  0  0  0  0  0  0
    7.2734    0.0247    0.8204 C   0  0  0  0  0  0  0  0  0  0  0  0
    8.1757   -0.4597    1.2210 H   0  0  0  0  0  0  0  0  0  0  0  0
    7.1719    0.3063   -0.5518 C   0  0  0  0  0  0  0  0  0  0  0  0
    7.9934    0.0445   -1.2349 H   0  0  0  0  0  0  0  0  0  0  0  0
    6.0235    0.9249   -1.0607 C   0  0  0  0  0  0  0  0  0  0  0  0
    5.9488    1.1437   -2.1385 H   0  0  0  0  0  0  0  0  0  0  0  0
  2 15  1  0  0  0  0
  3  9  1  0  0  0  0
  3  6  1  0  0  0  0
  4 14  1  0  0  0  0
  4 25  1  0  0  0  0
  5  4  1  0  0  0  0
  6  2  1  0  0  0  0
  7  2  1  0  0  0  0
  7  8  1  0  0  0  0
  9  7  2  0  0  0  0
 10  9  1  0  0  0  0
 11  3  1  0  0  0  0
 11 14  1  0  0  0  0
 12 11  1  0  0  0  0
 13 11  1  0  0  0  0
 14  1  2  0  0  0  0
 15 17  1  0  0  0  0
 16 15  1  0  0  0  0
 17 20  1  0  0  0  0
 17 19  1  0  0  0  0
 17 18  1  0  0  0  0
 21 23  1  0  0  0  0
 21 24  1  0  0  0  0
 21 15  1  0  0  0  0
 22 21  1  0  0  0  0
 25 26  1  0  0  0  0
 26 28  2  0  0  0  0
 26 27  1  0  0  0  0
 28 29  1  0  0  0  0
 30 31  1  0  0  0  0
 30 28  1  0  0  0  0
 32 30  2  0  0  0  0
 33 32  1  0  0  0  0
 34 32  1  0  0  0  0
 34 25  2  0  0  0  0
 35 34  1  0  0  0  0
M  END
