7
q = 0.0, confidence = 0.994

 42 46  0  0  1  0  0  0  0  0999 V2000
    0.2669   -2.8152   -0.7925 O   0  0  0  0  0  0  0  0  0  0  0  0
    0.2678    2.8208   -0.7713 O   0  0  0  0  0  0  0  0  0  0  0  0
   -1.0393   -0.7195   -0.9647 C   0  0  0  0  0  0  0  0  0  0  0  0
   -1.0396    0.7270   -0.9594 C   0  0  0  0  0  0  0  0  0  0  0  0
    0.1569    1.4674   -0.7743 C   0  0  0  0  0  0  0  0  0  0  0  0
    1.3594    0.7130   -0.5956 C   0  0  1  0  0  3  0  0  0  0  0  0
    1.3593   -0.7084   -0.6003 C   0  0  1  0  0  3  0  0  0  0  0  0
    0.1569   -1.4616   -0.7848 C   0  0  0  0  0  0  0  0  0  0  0  0
    2.8097    1.1410   -0.5152 C   0  0  2  0  0  0  0  0  0  0  0  0
    3.4055    0.7879   -1.9168 C   0  0  0  0  0  0  0  0  0  0  0  0
    3.4055   -0.7748   -1.9217 C   0  0  0  0  0  0  0  0  0  0  0  0
    2.8097   -1.1367   -0.5223 C   0  0  1  0  0  0  0  0  0  0  0  0
    3.4044   -0.0005    0.3434 C   0  0  0  0  0  0  0  0  0  0  0  0
   -2.4222   -1.1302   -1.4654 C   0  0  1  0  0  0  0  0  0  0  0  0
   -3.5025   -0.7801   -0.4069 C   0  0  0  0  0  0  0  0  0  0  0  0
   -3.5023    0.7801   -0.3996 C   0  0  0  0  0  0  0  0  0  0  0  0
   -2.4232    1.1402   -1.4562 C   0  0  2  0  0  0  0  0  0  0  0  0
   -2.6456    0.0091   -2.4955 C   0  0  0  0  0  0  0  0  0  0  0  0
   -0.7604   -3.5793   -0.1626 C   0  0  0  0  0  0  0  0  0  0  0  0
   -0.7642    3.5819   -0.1456 C   0  0  0  0  0  0  0  0  0  0  0  0
    2.9735    2.1797   -0.1793 H   0  0  0  0  0  0  0  0  0  0  0  0
    2.8068    1.2248   -2.7395 H   0  0  0  0  0  0  0  0  0  0  0  0
    4.4329    1.1942   -2.0027 H   0  0  0  0  0  0  0  0  0  0  0  0
    4.4328   -1.1806   -2.0101 H   0  0  0  0  0  0  0  0  0  0  0  0
    2.8068   -1.2065   -2.7472 H   0  0  0  0  0  0  0  0  0  0  0  0
    2.9735   -2.1775   -0.1930 H   0  0  0  0  0  0  0  0  0  0  0  0
    4.5130   -0.0006    0.3463 H   0  0  0  0  0  0  0  0  0  0  0  0
    3.0248   -0.0037    1.3820 H   0  0  0  0  0  0  0  0  0  0  0  0
   -2.4772   -2.1590   -1.8603 H   0  0  0  0  0  0  0  0  0  0  0  0
   -3.2727   -1.2146    0.5822 H   0  0  0  0  0  0  0  0  0  0  0  0
   -4.4839   -1.1805   -0.7308 H   0  0  0  0  0  0  0  0  0  0  0  0
   -4.4841    1.1838   -0.7180 H   0  0  0  0  0  0  0  0  0  0  0  0
   -3.2706    1.2050    0.5933 H   0  0  0  0  0  0  0  0  0  0  0  0
   -2.4802    2.1721   -1.8425 H   0  0  0  0  0  0  0  0  0  0  0  0
   -1.8972    0.0129   -3.3125 H   0  0  0  0  0  0  0  0  0  0  0  0
   -3.6679    0.0103   -2.9263 H   0  0  0  0  0  0  0  0  0  0  0  0
   -0.2932   -4.5247    0.1721 H   0  0  0  0  0  0  0  0  0  0  0  0
   -1.5905   -3.8179   -0.8600 H   0  0  0  0  0  0  0  0  0  0  0  0
   -1.1624   -3.0321    0.7166 H   0  0  0  0  0  0  0  0  0  0  0  0
   -0.2970    4.5203    0.2085 H   0  0  0  0  0  0  0  0  0  0  0  0
   -1.1815    3.0257    0.7206 H   0  0  0  0  0  0  0  0  0  0  0  0
   -1.5827    3.8342   -0.8518 H   0  0  0  0  0  0  0  0  0  0  0  0
  1  8  1  0  0  0  0
  1 19  1  0  0  0  0
  2 20  1  0  0  0  0
  3  4  1  0  0  0  0
  3  8  2  0  0  0  0
  4  5  2  0  0  0  0
  5  2  1  0  0  0  0
  6  5  1  6  0  0  0
  6  9  1  0  0  0  0
  7  8  1  6  0  0  0
  7  6  1  0  0  0  0
  7 12  1  0  0  0  0
  9 21  1  1  0  0  0
  9 13  1  0  0  0  0
 10  9  1  0  0  0  0
 11 10  1  0  0  0  0
 11 12  1  0  0  0  0
 12 26  1  1  0  0  0
 12 13  1  0  0  0  0
 13 27  1  0  0  0  0
 13 28  1  0  0  0  0
 14 29  1  6  0  0  0
 14  3  1  0  0  0  0
 14 15  1  0  0  0  0
 15 16  1  0  0  0  0
 15 30  1  0  0  0  0
 16 33  1  0  0  0  0
 17 34  1  6  0  0  0
 17  4  1  0  0  0  0
 17 16  1  0  0  0  0
 18 14  1  0  0  0  0
 18 17  1  0  0  0  0
 19 37  1  0  0  0  0
 19 39  1  0  0  0  0
 20 40  1  0  0  0  0
 20 41  1  0  0  0  0
 22 10  1  0  0  0  0
 23 10  1  0  0  0  0
 24 11  1  0  0  0  0
 25 11  1  0  0  0  0
 31 15  1  0  0  0  0
 32 16  1  0  0  0  0
 35 18  1  0  0  0  0
 36 18  1  0  0  0  0
 38 19  1  0  0  0  0
 42 20  1  0  0  0  0
M  END
