2
q = 0.0, confidence = 0.968

 54 60  0  0  1  0  0  0  0  0999 V2000
    1.1103   -0.8989   -0.5933 C   0  0  2  0  0  3  0  0  0  0  0  0
    1.3341    0.5111   -0.5925 C   0  0  2  0  0  3  0  0  0  0  0  0
    0.2230    1.4114   -0.5922 C   0  0  0  0  0  0  0  0  0  0  0  0
    2.3882   -1.6930   -0.7465 C   0  0  2  0  0  0  0  0  0  0  0  0
    3.3886   -1.3243    0.3716 C   0  0  0  0  0  0  0  0  0  0  0  0
    3.6305    0.2077    0.3744 C   0  0  0  0  0  0  0  0  0  0  0  0
    2.7952    0.8706   -0.7436 C   0  0  1  0  0  0  0  0  0  0  0  0
    2.9993   -1.2618   -2.1081 C   0  0  0  0  0  0  0  0  0  0  0  0
    3.2444    0.2742   -2.1059 C   0  0  0  0  0  0  0  0  0  0  0  0
    0.2716    2.9153   -0.7437 C   0  0  2  0  0  0  0  0  0  0  0  0
   -0.5494    3.5959    0.3743 C   0  0  0  0  0  0  0  0  0  0  0  0
   -0.4060    3.2305   -2.1057 C   0  0  0  0  0  0  0  0  0  0  0  0
    2.1872   -2.7812   -0.7391 H   0  0  0  0  0  0  0  0  0  0  0  0
    4.3340   -1.8762    0.1906 H   0  0  0  0  0  0  0  0  0  0  0  0
    2.9963   -1.6678    1.3465 H   0  0  0  0  0  0  0  0  0  0  0  0
    3.3598    0.6521    1.3499 H   0  0  0  0  0  0  0  0  0  0  0  0
    4.7004    0.4422    0.1973 H   0  0  0  0  0  0  0  0  0  0  0  0
    2.9413    1.9675   -0.7335 H   0  0  0  0  0  0  0  0  0  0  0  0
    2.3164   -1.5532   -2.9314 H   0  0  0  0  0  0  0  0  0  0  0  0
    3.9465   -1.8168   -2.2664 H   0  0  0  0  0  0  0  0  0  0  0  0
    4.3176    0.5073   -2.2614 H   0  0  0  0  0  0  0  0  0  0  0  0
    2.6878    0.7658   -2.9291 H   0  0  0  0  0  0  0  0  0  0  0  0
    1.3144    3.2856   -0.7345 H   0  0  0  0  0  0  0  0  0  0  0  0
   -0.5433    4.6909    0.1949 H   0  0  0  0  0  0  0  0  0  0  0  0
   -0.0572    3.4261    1.3496 H   0  0  0  0  0  0  0  0  0  0  0  0
    0.1894    2.7870   -2.9291 H   0  0  0  0  0  0  0  0  0  0  0  0
   -0.4000    4.3285   -2.2620 H   0  0  0  0  0  0  0  0  0  0  0  0
   -0.2249   -1.4110   -0.5927 C   0  0  0  0  0  0  0  0  0  0  0  0
   -1.3341   -0.5123   -0.5923 C   0  0  0  0  0  0  0  0  0  0  0  0
   -0.6441   -2.8561   -0.7441 C   0  0  1  0  0  0  0  0  0  0  0  0
   -1.6348   -3.2490    0.3745 C   0  0  0  0  0  0  0  0  0  0  0  0
   -2.8402   -2.2729    0.3740 C   0  0  0  0  0  0  0  0  0  0  0  0
   -2.6608   -1.2220   -0.7441 C   0  0  2  0  0  0  0  0  0  0  0  0
   -1.1099    0.9001   -0.5924 C   0  0  0  0  0  0  0  0  0  0  0  0
   -1.9974    3.0402    0.3739 C   0  0  0  0  0  0  0  0  0  0  0  0
   -2.1518    1.9855   -0.7444 C   0  0  1  0  0  0  0  0  0  0  0  0
   -1.8581    2.6729   -2.1063 C   0  0  0  0  0  0  0  0  0  0  0  0
   -2.0028    1.9447   -2.9295 H   0  0  0  0  0  0  0  0  0  0  0  0
   -2.5972    3.4848   -2.2636 H   0  0  0  0  0  0  0  0  0  0  0  0
   -3.1747    1.5633   -0.7360 H   0  0  0  0  0  0  0  0  0  0  0  0
   -2.7345    3.8500    0.1946 H   0  0  0  0  0  0  0  0  0  0  0  0
   -2.2500    2.5842    1.3489 H   0  0  0  0  0  0  0  0  0  0  0  0
   -2.5947   -1.9665   -2.1060 C   0  0  0  0  0  0  0  0  0  0  0  0
   -1.3865   -2.9462   -2.1059 C   0  0  0  0  0  0  0  0  0  0  0  0
    0.2329   -3.5310   -0.7353 H   0  0  0  0  0  0  0  0  0  0  0  0
   -0.6835   -2.7089   -2.9296 H   0  0  0  0  0  0  0  0  0  0  0  0
   -1.7209   -3.9921   -2.2619 H   0  0  0  0  0  0  0  0  0  0  0  0
   -3.5489   -2.5097   -2.2630 H   0  0  0  0  0  0  0  0  0  0  0  0
   -2.5073   -1.2291   -2.9293 H   0  0  0  0  0  0  0  0  0  0  0  0
   -3.5028   -0.5039   -0.7354 H   0  0  0  0  0  0  0  0  0  0  0  0
   -2.9395   -1.7615    1.3492 H   0  0  0  0  0  0  0  0  0  0  0  0
   -3.7915   -2.8152    0.1945 H   0  0  0  0  0  0  0  0  0  0  0  0
   -1.9674   -4.2924    0.1961 H   0  0  0  0  0  0  0  0  0  0  0  0
   -1.1137   -3.2386    1.3494 H   0  0  0  0  0  0  0  0  0  0  0  0
  1 28  1  6  0  0  0
  1  2  1  0  0  0  0
  2  3  1  6  0  0  0
  4 13  1  1  0  0  0
  4  1  1  0  0  0  0
  4  5  1  0  0  0  0
  5  6  1  0  0  0  0
  5 15  1  0  0  0  0
  6 16  1  0  0  0  0
  7 18  1  1  0  0  0
  7  2  1  0  0  0  0
  7  6  1  0  0  0  0
  8  9  1  0  0  0  0
  8  4  1  0  0  0  0
  9  7  1  0  0  0  0
 10 23  1  1  0  0  0
 10  3  1  0  0  0  0
 10 11  1  0  0  0  0
 11 25  1  0  0  0  0
 12 10  1  0  0  0  0
 14  5  1  0  0  0  0
 17  6  1  0  0  0  0
 19  8  1  0  0  0  0
 20  8  1  0  0  0  0
 21  9  1  0  0  0  0
 22  9  1  0  0  0  0
 24 11  1  0  0  0  0
 26 12  1  0  0  0  0
 27 12  1  0  0  0  0
 28 29  2  0  0  0  0
 30 45  1  1  0  0  0
 30 28  1  0  0  0  0
 30 31  1  0  0  0  0
 31 54  1  0  0  0  0
 32 31  1  0  0  0  0
 32 51  1  0  0  0  0
 33 50  1  1  0  0  0
 33 29  1  0  0  0  0
 33 32  1  0  0  0  0
 34 29  1  0  0  0  0
 34  3  2  0  0  0  0
 35 11  1  0  0  0  0
 35 42  1  0  0  0  0
 36 40  1  1  0  0  0
 36 34  1  0  0  0  0
 36 35  1  0  0  0  0
 37 12  1  0  0  0  0
 37 36  1  0  0  0  0
 38 37  1  0  0  0  0
 39 37  1  0  0  0  0
 41 35  1  0  0  0  0
 43 44  1  0  0  0  0
 43 33  1  0  0  0  0
 44 30  1  0  0  0  0
 46 44  1  0  0  0  0
 47 44  1  0  0  0  0
 48 43  1  0  0  0  0
 49 43  1  0  0  0  0
 52 32  1  0  0  0  0
 53 31  1  0  0  0  0
M  END
