4
q = -1.0, confidence = 0.0

 20 20  0  0  1  0  0  0  0  0999 V2000
   -2.2329   -1.9975    0.8445 S   0  0  0  0  0  0  0  0  0  0  0  0
   -4.5397   -1.1332   -0.8982 S   0  0  0  0  0  0  0  0  0  0  0  0
   -2.4211    0.3899   -0.1378 N   0  0  0  0  0  0  0  0  0  0  0  0
    0.2623   -1.3025   -0.1221 C   0  0  0  0  0  3  0  0  0  0  0  0
   -0.1867   -1.1660   -1.1271 H   0  0  0  0  0  0  0  0  0  0  0  0
    0.5619   -2.3641   -0.0249 H   0  0  0  0  0  0  0  0  0  0  0  0
   -0.7275   -0.9095    0.9680 C   0  0  1  0  0  0  0  0  0  0  0  0
   -0.3029   -1.0462    1.9814 H   0  0  0  0  0  0  0  0  0  0  0  0
   -1.3276    0.4948    0.8201 C   0  0  0  0  0  0  0  0  0  0  0  0
   -1.7012    0.8760    1.7981 H   0  0  0  0  0  0  0  0  0  0  0  0
   -0.5730    1.2203    0.4463 H   0  0  0  0  0  0  0  0  0  0  0  0
   -3.1075   -0.7960   -0.1398 C   0  0  0  0  0  0  0  0  0  0  0  0
   -2.9621    1.5965   -0.7591 C   0  0  0  0  0  0  0  0  0  0  0  0
   -2.1363    2.1379   -1.2681 H   0  0  0  0  0  0  0  0  0  0  0  0
   -3.6862    1.2355   -1.5220 H   0  0  0  0  0  0  0  0  0  0  0  0
   -3.6555    2.4864    0.2379 C   0  0  0  0  0  0  0  0  0  0  0  0
   -4.5346    2.0368    0.7332 H   0  0  0  0  0  0  0  0  0  0  0  0
   -3.2695    3.7373    0.5396 C   0  0  0  0  0  0  0  0  0  0  0  0
   -3.8191    4.3513    1.2698 H   0  0  0  0  0  0  0  0  0  0  0  0
   -2.3951    4.2018    0.0521 H   0  0  0  0  0  0  0  0  0  0  0  0
  1  7  1  0  0  0  0
  2 12  2  0  0  0  0
  3  9  1  0  0  0  0
  4  6  1  0  0  0  0
  4  7  1  0  0  0  0
  5  4  1  0  0  0  0
  7  8  1  1  0  0  0
  9  7  1  0  0  0  0
  9 10  1  0  0  0  0
 11  9  1  0  0  0  0
 12  3  1  0  0  0  0
 12  1  1  0  0  0  0
 13  3  1  0  0  0  0
 13 16  1  0  0  0  0
 14 13  1  0  0  0  0
 15 13  1  0  0  0  0
 16 18  2  0  0  0  0
 16 17  1  0  0  0  0
 18 19  1  0  0  0  0
 20 18  1  0  0  0  0
M  END
