3
q = -2.0, confidence = 0.624

 38 40  0  0  1  0  0  0  0  0999 V2000
   -0.8859    1.4884    0.3324 O   0  0  0  0  0  0  0  0  0  0  0  0
   -2.5841    3.0573    0.6646 F   0  0  0  0  0  0  0  0  0  0  0  0
    0.3291   -0.4375   -0.1558 C   0  0  0  0  0  3  0  0  0  0  0  0
    0.6352   -0.8363   -1.1412 H   0  0  0  0  0  0  0  0  0  0  0  0
    0.4782    1.1003    0.0110 C   0  0  2  0  0  0  0  0  0  0  0  0
    0.8377    1.6623   -0.8708 H   0  0  0  0  0  0  0  0  0  0  0  0
    2.7278    0.7185    0.7649 C   0  0  0  0  0  0  0  0  0  0  0  0
    0.9237    0.0637    2.1264 C   0  0  0  0  0  0  0  0  0  0  0  0
   -0.1368    0.1505    2.4354 H   0  0  0  0  0  0  0  0  0  0  0  0
    1.5646   -0.0829    3.0173 H   0  0  0  0  0  0  0  0  0  0  0  0
    2.5980   -0.6806    0.6519 C   0  0  0  0  0  0  0  0  0  0  0  0
    1.3975    1.2513    1.2462 C   0  0  2  0  0  0  0  0  0  0  0  0
    1.3896    2.2669    1.6785 H   0  0  0  0  0  0  0  0  0  0  0  0
    1.1599   -1.0108    1.0334 C   0  0  2  0  0  0  0  0  0  0  0  0
    0.9620   -2.0665    1.2914 H   0  0  0  0  0  0  0  0  0  0  0  0
    4.8535   -0.8066   -0.2334 C   0  0  0  0  0  0  0  0  0  0  0  0
    5.6941   -1.4034   -0.6010 H   0  0  0  0  0  0  0  0  0  0  0  0
    3.8843    1.3640    0.3292 C   0  0  0  0  0  0  0  0  0  0  0  0
   -0.4576    3.7848    0.0382 F   0  0  0  0  0  0  0  0  0  0  0  0
    3.6507   -1.4495    0.1377 C   0  0  0  0  0  0  0  0  0  0  0  0
   -1.8325    2.6980   -1.4868 F   0  0  0  0  0  0  0  0  0  0  0  0
   -1.4745    2.8584   -0.1498 B   0  0  0  0  0  0  0  0  0  0  0  0
    4.9557    0.5930   -0.1469 C   0  0  0  0  0  0  0  0  0  0  0  0
    5.8793    1.0973   -0.4650 H   0  0  0  0  0  0  0  0  0  0  0  0
    3.3782   -2.8112    0.0365 O   0  0  0  0  0  0  0  0  0  0  0  0
    3.9541    2.7552    0.3840 O   0  0  0  0  0  0  0  0  0  0  0  0
    5.4376   -3.5792   -0.6310 O   0  0  0  0  0  0  0  0  0  0  0  0
    4.2780   -3.7769   -0.3401 C   0  0  0  0  0  0  0  0  0  0  0  0
    2.7382    2.8670   -1.5439 O   0  0  0  0  0  0  0  0  0  0  0  0
    3.2240    3.4271   -0.5869 C   0  0  0  0  0  0  0  0  0  0  0  0
    3.0789    4.8841   -0.2498 C   0  0  0  0  0  0  0  0  0  0  0  0
    2.0343    5.0236    0.1009 H   0  0  0  0  0  0  0  0  0  0  0  0
    3.1979    5.4897   -1.1671 H   0  0  0  0  0  0  0  0  0  0  0  0
    3.7819    5.2084    0.5372 H   0  0  0  0  0  0  0  0  0  0  0  0
    3.5882   -5.1208   -0.3311 C   0  0  0  0  0  0  0  0  0  0  0  0
    2.7205   -5.1092   -1.0204 H   0  0  0  0  0  0  0  0  0  0  0  0
    3.1962   -5.3420    0.6815 H   0  0  0  0  0  0  0  0  0  0  0  0
    4.3041   -5.9022   -0.6380 H   0  0  0  0  0  0  0  0  0  0  0  0
  3  5  1  0  0  0  0
  3 14  1  0  0  0  0
  4  3  1  0  0  0  0
  5  6  1  6  0  0  0
  5  1  1  0  0  0  0
  5 12  1  0  0  0  0
  7 12  1  0  0  0  0
  8  9  1  0  0  0  0
  8 10  1  0  0  0  0
 11  7  1  0  0  0  0
 11 14  1  0  0  0  0
 12 13  1  1  0  0  0
 12  8  1  0  0  0  0
 14 15  1  1  0  0  0
 14  8  1  0  0  0  0
 16 23  2  0  0  0  0
 16 20  1  0  0  0  0
 17 16  1  0  0  0  0
 18 26  1  0  0  0  0
 18  7  2  0  0  0  0
 20 11  2  0  0  0  0
 21 22  1  0  0  0  0
 22 19  1  0  0  0  0
 22  1  1  0  0  0  0
 22  2  1  0  0  0  0
 23 18  1  0  0  0  0
 24 23  1  0  0  0  0
 25 20  1  0  0  0  0
 27 28  2  0  0  0  0
 28 35  1  0  0  0  0
 28 25  1  0  0  0  0
 29 30  2  0  0  0  0
 30 31  1  0  0  0  0
 30 26  1  0  0  0  0
 31 32  1  0  0  0  0
 31 34  1  0  0  0  0
 33 31  1  0  0  0  0
 35 37  1  0  0  0  0
 36 35  1  0  0  0  0
 38 35  1  0  0  0  0
M  END
