1
q = 0.0, confidence = 0.73

 31 32  0  0  0  0  0  0  0  0999 V2000
    0.5043    0.5827   -0.0004 C   0  0  0  0  0  2  0  0  0  0  0  0
   -0.9089    0.6077   -0.0008 C   0  0  0  0  0  0  0  0  0  0  0  0
   -2.1498    0.6108   -0.0013 C   0  0  0  0  0  0  0  0  0  0  0  0
   -3.5691    0.5863   -0.0017 C   0  0  0  0  0  0  0  0  0  0  0  0
   -4.2838   -0.6412    0.0000 C   0  0  0  0  0  0  0  0  0  0  0  0
   -5.6815   -0.6540   -0.0014 C   0  0  0  0  0  0  0  0  0  0  0  0
   -6.4272    0.5435   -0.0039 C   0  0  0  0  0  0  0  0  0  0  0  0
   -5.7160    1.7646   -0.0072 C   0  0  0  0  0  0  0  0  0  0  0  0
   -4.3210    1.7932   -0.0057 C   0  0  0  0  0  0  0  0  0  0  0  0
   -7.9333    0.5317    0.0085 C   0  0  0  0  0  0  0  0  0  0  0  0
    1.1460    1.9228   -0.0001 C   0  0  0  0  0  0  0  0  0  0  0  0
    0.3583    3.1034    0.0016 C   0  0  0  0  0  0  0  0  0  0  0  0
    0.9396    4.3748    0.0021 C   0  0  0  0  0  0  0  0  0  0  0  0
    2.3390    4.5366    0.0009 C   0  0  0  0  0  0  0  0  0  0  0  0
    3.1311    3.3663   -0.0009 C   0  0  0  0  0  0  0  0  0  0  0  0
    2.5542    2.0967   -0.0013 C   0  0  0  0  0  0  0  0  0  0  0  0
    2.9785    5.8994    0.0016 C   0  0  0  0  0  0  0  0  0  0  0  0
   -3.7228   -1.5874    0.0010 H   0  0  0  0  0  0  0  0  0  0  0  0
   -6.2131   -1.6186   -0.0015 H   0  0  0  0  0  0  0  0  0  0  0  0
   -6.2753    2.7138   -0.0120 H   0  0  0  0  0  0  0  0  0  0  0  0
   -3.7843    2.7532   -0.0092 H   0  0  0  0  0  0  0  0  0  0  0  0
   -8.3491    1.1708   -0.7975 H   0  0  0  0  0  0  0  0  0  0  0  0
   -8.3277    0.9313    0.9670 H   0  0  0  0  0  0  0  0  0  0  0  0
   -8.3371   -0.4907   -0.1207 H   0  0  0  0  0  0  0  0  0  0  0  0
   -0.7372    3.0080    0.0026 H   0  0  0  0  0  0  0  0  0  0  0  0
    0.2930    5.2668    0.0035 H   0  0  0  0  0  0  0  0  0  0  0  0
    4.2290    3.4568   -0.0019 H   0  0  0  0  0  0  0  0  0  0  0  0
    3.2076    1.2167   -0.0027 H   0  0  0  0  0  0  0  0  0  0  0  0
    2.2233    6.7087    0.0012 H   0  0  0  0  0  0  0  0  0  0  0  0
    3.6288    6.0372   -0.8878 H   0  0  0  0  0  0  0  0  0  0  0  0
    3.6273    6.0369    0.8922 H   0  0  0  0  0  0  0  0  0  0  0  0
  1 11  1  0  0  0  0
  2  1  1  0  0  0  0
  3  2  3  0  0  0  0
  4  3  1  0  0  0  0
  4  5  1  0  0  0  0
  5 18  1  0  0  0  0
  6  5  2  0  0  0  0
  7  6  1  0  0  0  0
  7 10  1  0  0  0  0
  8  9  1  0  0  0  0
  8  7  2  0  0  0  0
  9  4  2  0  0  0  0
 10 23  1  0  0  0  0
 11 12  1  0  0  0  0
 12 13  2  0  0  0  0
 12 25  1  0  0  0  0
 13 26  1  0  0  0  0
 14 17  1  0  0  0  0
 14 13  1  0  0  0  0
 15 14  2  0  0  0  0
 16 15  1  0  0  0  0
 16 11  2  0  0  0  0
 17 31  1  0  0  0  0
 19  6  1  0  0  0  0
 20  8  1  0  0  0  0
 21  9  1  0  0  0  0
 22 10  1  0  0  0  0
 24 10  1  0  0  0  0
 27 15  1  0  0  0  0
 28 16  1  0  0  0  0
 29 17  1  0  0  0  0
 30 17  1  0  0  0  0
M  END
