5
q = 0.0, confidence = 0.982

 24 23  0  0  0  0  0  0  0  0999 V2000
   -2.8824   -0.6530   -0.4739 N   0  0  0  0  0  4  0  0  0  0  0  0
    0.5103    1.2394   -2.0814 C   0  0  0  0  0  3  0  0  0  0  0  0
   -0.3571    1.9247   -2.0635 H   0  0  0  0  0  0  0  0  0  0  0  0
    1.4146    1.7184   -2.4842 H   0  0  0  0  0  0  0  0  0  0  0  0
    0.3016   -0.1490   -2.3771 C   0  0  0  0  0  3  0  0  0  0  0  0
    0.9550   -0.7353   -3.0425 H   0  0  0  0  0  0  0  0  0  0  0  0
   -0.8222   -0.7870   -1.7755 C   0  0  0  0  0  3  0  0  0  0  0  0
   -0.9588   -1.8721   -1.9139 H   0  0  0  0  0  0  0  0  0  0  0  0
   -1.8096   -0.0509   -1.0776 C   0  0  0  0  0  0  0  0  0  0  0  0
   -1.8816    1.0384   -1.1938 H   0  0  0  0  0  0  0  0  0  0  0  0
   -4.2272   -0.0308   -0.3325 C   0  0  0  0  0  0  0  0  0  0  0  0
   -4.1181    1.3198    0.3871 C   0  0  0  0  0  0  0  0  0  0  0  0
   -3.6457    1.2060    1.3829 H   0  0  0  0  0  0  0  0  0  0  0  0
   -5.1299    1.7433    0.5351 H   0  0  0  0  0  0  0  0  0  0  0  0
   -3.5396    2.0610   -0.1979 H   0  0  0  0  0  0  0  0  0  0  0  0
   -5.0649   -1.0026    0.5115 C   0  0  0  0  0  0  0  0  0  0  0  0
   -5.1354   -1.9976    0.0238 H   0  0  0  0  0  0  0  0  0  0  0  0
   -6.0967   -0.6206    0.6298 H   0  0  0  0  0  0  0  0  0  0  0  0
   -4.6285   -1.1372    1.5215 H   0  0  0  0  0  0  0  0  0  0  0  0
   -4.8623    0.1538   -1.7246 C   0  0  0  0  0  0  0  0  0  0  0  0
   -4.2486    0.8291   -2.3542 H   0  0  0  0  0  0  0  0  0  0  0  0
   -5.8766    0.5917   -1.6410 H   0  0  0  0  0  0  0  0  0  0  0  0
   -4.9531   -0.8179   -2.2509 H   0  0  0  0  0  0  0  0  0  0  0  0
   -2.9376   -1.6666   -0.6147 H   0  0  0  0  0  0  0  0  0  0  0  0
  1 11  1  0  0  0  0
  2  3  1  0  0  0  0
  4  2  1  0  0  0  0
  5  2  1  0  0  0  0
  5  7  1  0  0  0  0
  6  5  1  0  0  0  0
  7  9  1  0  0  0  0
  8  7  1  0  0  0  0
  9  1  2  0  0  0  0
 10  9  1  0  0  0  0
 11 12  1  0  0  0  0
 11 16  1  0  0  0  0
 12 14  1  0  0  0  0
 12 13  1  0  0  0  0
 15 12  1  0  0  0  0
 16 18  1  0  0  0  0
 16 19  1  0  0  0  0
 17 16  1  0  0  0  0
 20 22  1  0  0  0  0
 20 11  1  0  0  0  0
 21 20  1  0  0  0  0
 23 20  1  0  0  0  0
 24  1  1  0  0  0  0
M  END
