14
q = -2.0, confidence = 0.832

 45 47  0  0  1  0  0  0  0  0999 V2000
    0.1597    2.4989    0.0769 Si  0  0  0  0  0  0  0  0  0  0  0  0
   -0.7689    0.7766   -2.0624 C   0  0  0  0  0  0  0  0  0  0  0  0
    0.0024    1.1458   -2.7519 H   0  0  0  0  0  0  0  0  0  0  0  0
    0.7806    3.8335   -1.1133 C   0  0  0  0  0  0  0  0  0  0  0  0
    0.8811    3.4781   -2.1568 H   0  0  0  0  0  0  0  0  0  0  0  0
    1.7621    4.2346   -0.7880 H   0  0  0  0  0  0  0  0  0  0  0  0
    0.0529    4.6711   -1.1199 H   0  0  0  0  0  0  0  0  0  0  0  0
   -0.5309    3.3990    1.5868 C   0  0  0  0  0  0  0  0  0  0  0  0
   -1.3221    4.1020    1.2540 H   0  0  0  0  0  0  0  0  0  0  0  0
    0.2719    3.9951    2.0679 H   0  0  0  0  0  0  0  0  0  0  0  0
   -0.9626    2.7329    2.3545 H   0  0  0  0  0  0  0  0  0  0  0  0
    1.3497    0.2657    1.6314 C   0  0  1  0  0  3  0  0  0  0  0  0
    2.2457    0.4715   -0.4986 C   0  0  2  0  0  3  0  0  0  0  0  0
    1.4357    1.1506    0.4905 C   0  0  1  0  0  3  0  0  0  0  0  0
    2.0982   -0.9229    1.3475 C   0  0  0  0  0  0  0  0  0  0  0  0
    0.6469    0.5439    2.9336 C   0  0  0  0  0  0  0  0  0  0  0  0
    0.8402   -0.2620    3.6658 H   0  0  0  0  0  0  0  0  0  0  0  0
   -0.4536    0.6199    2.8246 H   0  0  0  0  0  0  0  0  0  0  0  0
    1.0044    1.4936    3.3800 H   0  0  0  0  0  0  0  0  0  0  0  0
    2.6554   -0.7927    0.0339 C   0  0  0  0  0  0  0  0  0  0  0  0
    2.3640   -2.0627    2.2848 C   0  0  0  0  0  0  0  0  0  0  0  0
    3.3118   -1.9053    2.8440 H   0  0  0  0  0  0  0  0  0  0  0  0
    2.4634   -3.0220    1.7393 H   0  0  0  0  0  0  0  0  0  0  0  0
    1.5544   -2.1910    3.0276 H   0  0  0  0  0  0  0  0  0  0  0  0
    2.7228    0.9876   -1.8292 C   0  0  0  0  0  0  0  0  0  0  0  0
    3.8146    1.1927   -1.7946 H   0  0  0  0  0  0  0  0  0  0  0  0
    2.2277    1.9296   -2.1191 H   0  0  0  0  0  0  0  0  0  0  0  0
    2.5626    0.2507   -2.6431 H   0  0  0  0  0  0  0  0  0  0  0  0
    3.6477   -1.7197   -0.5982 C   0  0  0  0  0  0  0  0  0  0  0  0
    4.6857   -1.4119   -0.3434 H   0  0  0  0  0  0  0  0  0  0  0  0
    3.5671   -1.7265   -1.7020 H   0  0  0  0  0  0  0  0  0  0  0  0
    3.5218   -2.7628   -0.2486 H   0  0  0  0  0  0  0  0  0  0  0  0
   -2.1399    0.5474   -0.2294 C   0  0  0  0  0  0  0  0  0  0  0  0
   -1.0803    1.3647   -0.7841 C   0  0  0  0  0  0  0  0  0  0  0  0
   -3.4699   -1.4639   -0.8820 C   0  0  0  0  0  0  0  0  0  0  0  0
   -3.7058   -2.2619   -1.6021 H   0  0  0  0  0  0  0  0  0  0  0  0
   -4.1707   -1.3486    0.3109 C   0  0  0  0  0  0  0  0  0  0  0  0
   -4.9750   -2.0626    0.5437 H   0  0  0  0  0  0  0  0  0  0  0  0
   -2.4398   -0.5263   -1.1704 C   0  0  1  0  0  3  0  0  0  0  0  0
   -1.5541   -0.3804   -2.2890 C   0  0  0  0  0  0  0  0  0  0  0  0
   -1.5312   -1.0158   -3.1817 H   0  0  0  0  0  0  0  0  0  0  0  0
   -3.8678   -0.3146    1.2458 C   0  0  0  0  0  0  0  0  0  0  0  0
   -4.4445   -0.2533    2.1811 H   0  0  0  0  0  0  0  0  0  0  0  0
   -2.8693    0.6166    0.9947 C   0  0  0  0  0  0  0  0  0  0  0  0
   -2.6657    1.4238    1.7129 H   0  0  0  0  0  0  0  0  0  0  0  0
  1  8  1  0  0  0  0
  2 34  1  0  0  0  0
  3  2  1  0  0  0  0
  4  6  1  0  0  0  0
  4  1  1  0  0  0  0
  5  4  1  0  0  0  0
  7  4  1  0  0  0  0
  8 10  1  0  0  0  0
  8 11  1  0  0  0  0
  9  8  1  0  0  0  0
 12 16  1  1  0  0  0
 13 25  1  1  0  0  0
 13 20  1  0  0  0  0
 13 14  1  0  0  0  0
 14  1  1  6  0  0  0
 14 12  1  0  0  0  0
 15 12  1  0  0  0  0
 15 21  1  0  0  0  0
 16 19  1  0  0  0  0
 16 17  1  0  0  0  0
 18 16  1  0  0  0  0
 20 15  2  0  0  0  0
 21 22  1  0  0  0  0
 21 24  1  0  0  0  0
 23 21  1  0  0  0  0
 25 26  1  0  0  0  0
 27 25  1  0  0  0  0
 28 25  1  0  0  0  0
 29 30  1  0  0  0  0
 29 32  1  0  0  0  0
 29 20  1  0  0  0  0
 31 29  1  0  0  0  0
 33 44  1  0  0  0  0
 34 33  2  0  0  0  0
 34  1  1  0  0  0  0
 35 37  2  0  0  0  0
 36 35  1  0  0  0  0
 37 38  1  0  0  0  0
 37 42  1  0  0  0  0
 39 40  1  6  0  0  0
 39 35  1  0  0  0  0
 39 33  1  0  0  0  0
 40  2  2  0  0  0  0
 41 40  1  0  0  0  0
 42 43  1  0  0  0  0
 44 42  2  0  0  0  0
 44 45  1  0  0  0  0
M  END
