2
q = 0.0, confidence = 0.99

 24 24  0  0  0  0  0  0  0  0999 V2000
   -1.3087    2.3686   -0.0121 O   0  0  0  0  0  0  0  0  0  0  0  0
   -0.7190    1.1605   -0.0035 C   0  0  0  0  0  3  0  0  0  0  0  0
    0.7106    1.3477   -0.0028 C   0  0  0  0  0  0  0  0  0  0  0  0
    1.0363    2.8307   -0.0355 C   0  0  0  0  0  0  0  0  0  0  0  0
    1.5946    3.1050   -0.9559 H   0  0  0  0  0  0  0  0  0  0  0  0
    1.6648    3.1358    0.8275 H   0  0  0  0  0  0  0  0  0  0  0  0
   -0.3552    3.4731    0.0075 C   0  0  0  0  0  0  0  0  0  0  0  0
   -0.5519    4.0533    0.9316 H   0  0  0  0  0  0  0  0  0  0  0  0
   -0.5858    4.1164   -0.8646 H   0  0  0  0  0  0  0  0  0  0  0  0
    1.6462    0.3313    0.0147 C   0  0  0  0  0  3  0  0  0  0  0  0
    1.2609   -0.6996    0.0369 H   0  0  0  0  0  0  0  0  0  0  0  0
    3.0571    0.4919    0.0053 C   0  0  0  0  0  0  0  0  0  0  0  0
    3.4819    1.5067   -0.0207 H   0  0  0  0  0  0  0  0  0  0  0  0
    3.8915   -0.6150    0.0213 C   0  0  0  0  0  0  0  0  0  0  0  0
    3.4339   -1.6185    0.0263 H   0  0  0  0  0  0  0  0  0  0  0  0
    5.2455   -0.6126    0.0362 N   0  0  0  0  0  0  0  0  0  0  0  0
    6.0051   -1.8469   -0.0525 C   0  0  0  0  0  0  0  0  0  0  0  0
    5.3190   -2.7118    0.0064 H   0  0  0  0  0  0  0  0  0  0  0  0
    6.7365   -1.9243    0.7801 H   0  0  0  0  0  0  0  0  0  0  0  0
    6.5652   -1.9133   -1.0116 H   0  0  0  0  0  0  0  0  0  0  0  0
    5.9765    0.6420    0.0269 C   0  0  0  0  0  0  0  0  0  0  0  0
    5.8350    1.1912   -0.9305 H   0  0  0  0  0  0  0  0  0  0  0  0
    7.0552    0.4438    0.1618 H   0  0  0  0  0  0  0  0  0  0  0  0
    5.6352    1.3008    0.8530 H   0  0  0  0  0  0  0  0  0  0  0  0
  1  2  1  0  0  0  0
  1  7  1  0  0  0  0
  2  3  2  0  0  0  0
  3 10  1  0  0  0  0
  4  3  1  0  0  0  0
  4  7  1  0  0  0  0
  4  6  1  0  0  0  0
  5  4  1  0  0  0  0
  7  8  1  0  0  0  0
  9  7  1  0  0  0  0
 10 11  1  0  0  0  0
 12 10  1  0  0  0  0
 12 14  2  0  0  0  0
 13 12  1  0  0  0  0
 14 15  1  0  0  0  0
 14 16  1  0  0  0  0
 17 18  1  0  0  0  0
 17 16  1  0  0  0  0
 17 19  1  0  0  0  0
 20 17  1  0  0  0  0
 21 16  1  0  0  0  0
 21 23  1  0  0  0  0
 21 24  1  0  0  0  0
 22 21  1  0  0  0  0
M  END
