4
q = 0.0, confidence = 0.894

 25 26  0  0  0  0  0  0  0  0999 V2000
   -0.0727    0.9818    0.0870 N   0  0  0  0  0  2  0  0  0  0  0  0
    5.5082    0.7887   -0.0401 N   0  0  0  0  0  2  0  0  0  0  0  0
    6.0644   -0.3486    0.0434 N   0  0  0  0  0  2  0  0  0  0  0  0
   -1.2022    0.6045    0.1322 C   0  0  0  0  0  1  0  0  0  0  0  0
    1.3021    0.9293    0.0582 C   0  0  0  0  0  0  0  0  0  0  0  0
    2.0649    2.1092   -0.0653 C   0  0  0  0  0  0  0  0  0  0  0  0
    3.4578    2.0187   -0.0944 C   0  0  0  0  0  0  0  0  0  0  0  0
    4.0994    0.7643   -0.0002 C   0  0  0  0  0  0  0  0  0  0  0  0
    3.3215   -0.4146    0.1258 C   0  0  0  0  0  0  0  0  0  0  0  0
    1.9336   -0.3391    0.1549 C   0  0  0  0  0  0  0  0  0  0  0  0
    7.4745   -0.3318    0.0051 C   0  0  0  0  0  0  0  0  0  0  0  0
    8.2576    0.8417   -0.1157 C   0  0  0  0  0  0  0  0  0  0  0  0
    9.6501    0.7427   -0.1434 C   0  0  0  0  0  0  0  0  0  0  0  0
   10.2771   -0.5164   -0.0519 C   0  0  0  0  0  0  0  0  0  0  0  0
    9.5030   -1.6822    0.0682 C   0  0  0  0  0  0  0  0  0  0  0  0
    8.1058   -1.5915    0.0968 C   0  0  0  0  0  0  0  0  0  0  0  0
    1.5530    3.0791   -0.1337 H   0  0  0  0  0  0  0  0  0  0  0  0
    4.0898    2.9136   -0.1886 H   0  0  0  0  0  0  0  0  0  0  0  0
    3.8479   -1.3766    0.1985 H   0  0  0  0  0  0  0  0  0  0  0  0
    1.2985   -1.2334    0.2498 H   0  0  0  0  0  0  0  0  0  0  0  0
    7.7369    1.8071   -0.1844 H   0  0  0  0  0  0  0  0  0  0  0  0
   10.2629    1.6527   -0.2369 H   0  0  0  0  0  0  0  0  0  0  0  0
   11.3754   -0.5851   -0.0742 H   0  0  0  0  0  0  0  0  0  0  0  0
    9.9925   -2.6651    0.1403 H   0  0  0  0  0  0  0  0  0  0  0  0
    7.4658   -2.4811    0.1903 H   0  0  0  0  0  0  0  0  0  0  0  0
  1  4  1  0  0  0  0
  2  8  1  0  0  0  0
  2  3  1  0  0  0  0
  5  1  1  0  0  0  0
  5 10  1  0  0  0  0
  6  5  2  0  0  0  0
  7  6  1  0  0  0  0
  7  8  2  0  0  0  0
  8  9  1  0  0  0  0
  9 10  2  0  0  0  0
  9 19  1  0  0  0  0
 10 20  1  0  0  0  0
 11  3  1  0  0  0  0
 11 16  1  0  0  0  0
 12 11  2  0  0  0  0
 13 12  1  0  0  0  0
 13 14  2  0  0  0  0
 14 15  1  0  0  0  0
 15 16  2  0  0  0  0
 15 24  1  0  0  0  0
 16 25  1  0  0  0  0
 17  6  1  0  0  0  0
 18  7  1  0  0  0  0
 21 12  1  0  0  0  0
 22 13  1  0  0  0  0
 23 14  1  0  0  0  0
M  END
