4
q = 0.0, confidence = 0.908

 25 26  0  0  0  0  0  0  0  0999 V2000
    0.0767    0.3919   -0.3579 N   0  0  0  0  0  2  0  0  0  0  0  0
   -5.4400   -0.2953    0.1820 N   0  0  0  0  0  0  0  0  0  0  0  0
   -6.2093    0.5726   -0.3326 N   0  0  0  0  0  0  0  0  0  0  0  0
    1.2303    0.1196   -0.2120 C   0  0  0  0  0  1  0  0  0  0  0  0
   -1.2872    0.2554   -0.2424 C   0  0  0  0  0  0  0  0  0  0  0  0
   -1.8051   -0.8677    0.4462 C   0  0  0  0  0  0  0  0  0  0  0  0
   -3.1872   -1.0099    0.5632 C   0  0  0  0  0  0  0  0  0  0  0  0
   -4.0636   -0.0515    0.0046 C   0  0  0  0  0  0  0  0  0  0  0  0
   -3.5323    1.0684   -0.6814 C   0  0  0  0  0  0  0  0  0  0  0  0
   -2.1547    1.2225   -0.8052 C   0  0  0  0  0  0  0  0  0  0  0  0
   -7.5883    0.3320   -0.1542 C   0  0  0  0  0  0  0  0  0  0  0  0
   -8.1224   -0.7774    0.5449 C   0  0  0  0  0  0  0  0  0  0  0  0
   -9.5066   -0.9184    0.6623 C   0  0  0  0  0  0  0  0  0  0  0  0
  -10.3716    0.0358    0.0898 C   0  0  0  0  0  0  0  0  0  0  0  0
   -9.8449    1.1376   -0.6041 C   0  0  0  0  0  0  0  0  0  0  0  0
   -8.4577    1.2862   -0.7261 C   0  0  0  0  0  0  0  0  0  0  0  0
   -1.0991   -1.5983    0.8687 H   0  0  0  0  0  0  0  0  0  0  0  0
   -3.6304   -1.8670    1.0911 H   0  0  0  0  0  0  0  0  0  0  0  0
   -4.2379    1.7977   -1.1031 H   0  0  0  0  0  0  0  0  0  0  0  0
   -1.7224    2.0861   -1.3309 H   0  0  0  0  0  0  0  0  0  0  0  0
   -7.4201   -1.5025    0.9795 H   0  0  0  0  0  0  0  0  0  0  0  0
   -9.9258   -1.7795    1.2056 H   0  0  0  0  0  0  0  0  0  0  0  0
  -11.4615   -0.0831    0.1876 H   0  0  0  0  0  0  0  0  0  0  0  0
  -10.5200    1.8829   -1.0508 H   0  0  0  0  0  0  0  0  0  0  0  0
   -8.0075    2.1353   -1.2612 H   0  0  0  0  0  0  0  0  0  0  0  0
  1  5  1  0  0  0  0
  1  4  1  0  0  0  0
  3 11  1  0  0  0  0
  3  2  2  0  0  0  0
  5  6  1  0  0  0  0
  6  7  2  0  0  0  0
  6 17  1  0  0  0  0
  7 18  1  0  0  0  0
  8  2  1  0  0  0  0
  8  7  1  0  0  0  0
  9  8  2  0  0  0  0
 10  9  1  0  0  0  0
 10  5  2  0  0  0  0
 11 12  1  0  0  0  0
 12 13  2  0  0  0  0
 12 21  1  0  0  0  0
 13 22  1  0  0  0  0
 14 23  1  0  0  0  0
 14 13  1  0  0  0  0
 15 14  2  0  0  0  0
 16 15  1  0  0  0  0
 16 11  2  0  0  0  0
 19  9  1  0  0  0  0
 20 10  1  0  0  0  0
 24 15  1  0  0  0  0
 25 16  1  0  0  0  0
M  END
