2
q = 0.0, confidence = 0.966

 15 14  0  0  0  0  0  0  0  0999 V2000
   -2.5680   -0.1216   -0.0812 N   0  0  0  0  0  2  0  0  0  0  0  0
   -1.6563   -0.0797    0.6854 C   0  0  0  0  0  1  0  0  0  0  0  0
   -3.3001   -1.5580   -1.8881 C   0  0  0  0  0  0  0  0  0  0  0  0
   -3.3650   -2.4419   -1.2248 H   0  0  0  0  0  0  0  0  0  0  0  0
   -2.2843   -1.5224   -2.3265 H   0  0  0  0  0  0  0  0  0  0  0  0
   -4.0494   -1.6396   -2.6972 H   0  0  0  0  0  0  0  0  0  0  0  0
   -3.5741   -0.2799   -1.0645 C   0  0  0  0  0  0  0  0  0  0  0  0
   -2.7327    1.9001   -1.7303 O   0  0  0  0  0  0  0  0  0  0  0  0
   -2.8668    2.5991   -2.4084 H   0  0  0  0  0  0  0  0  0  0  0  0
   -3.5998    0.9167   -2.0488 C   0  0  0  0  0  0  0  0  0  0  0  0
   -4.9637   -0.3446   -0.3906 C   0  0  0  0  0  0  0  0  0  0  0  0
   -5.1459    0.5657    0.2125 H   0  0  0  0  0  0  0  0  0  0  0  0
   -5.0081   -1.2254    0.2782 H   0  0  0  0  0  0  0  0  0  0  0  0
   -5.7462   -0.4278   -1.1676 H   0  0  0  0  0  0  0  0  0  0  0  0
   -4.3456    0.9580   -3.0060 O   0  0  0  0  0  0  0  0  0  0  0  0
  1  2  1  0  0  0  0
  3  4  1  0  0  0  0
  3  7  1  0  0  0  0
  5  3  1  0  0  0  0
  6  3  1  0  0  0  0
  7 11  1  0  0  0  0
  7  1  1  0  0  0  0
  9  8  1  0  0  0  0
 10  8  1  0  0  0  0
 10  7  1  0  0  0  0
 11 12  1  0  0  0  0
 11 13  1  0  0  0  0
 14 11  1  0  0  0  0
 15 10  2  0  0  0  0
M  END
