1
q = 0.0, confidence = 0.99

 39 40  0  0  0  0  0  0  0  0999 V2000
    0.6922    0.9230   -0.1555 C   0  0  0  0  0  3  0  0  0  0  0  0
    1.3122    2.0968   -0.4439 C   0  0  0  0  0  0  0  0  0  0  0  0
    0.7480    3.4550   -0.4633 C   0  0  0  0  0  0  0  0  0  0  0  0
   -0.6074    3.7592   -0.1758 C   0  0  0  0  0  0  0  0  0  0  0  0
   -1.0696    5.0804   -0.1990 C   0  0  0  0  0  0  0  0  0  0  0  0
   -0.1979    6.1382   -0.5104 C   0  0  0  0  0  0  0  0  0  0  0  0
    1.1466    5.8570   -0.8013 C   0  0  0  0  0  0  0  0  0  0  0  0
    1.6096    4.5357   -0.7781 C   0  0  0  0  0  0  0  0  0  0  0  0
   -0.6676    0.6653    0.2214 C   0  0  0  0  0  0  0  0  0  0  0  0
   -1.0552    0.7324    1.5125 O   0  0  0  0  0  0  0  0  0  0  0  0
   -0.1284    1.2535    2.4929 C   0  0  0  0  0  0  0  0  0  0  0  0
   -0.7214    1.0049    3.8629 C   0  0  0  0  0  0  0  0  0  0  0  0
   -1.6483    0.2994   -0.7393 C   0  0  0  0  0  0  0  0  0  0  0  0
   -2.9585   -0.1535   -0.5413 C   0  0  0  0  0  0  0  0  0  0  0  0
   -3.6000   -0.3783    0.7371 C   0  0  0  0  0  0  0  0  0  0  0  0
   -4.8843   -0.8527    0.8147 C   0  0  0  0  0  3  0  0  0  0  0  0
   -5.6384   -1.1312   -0.3048 N   0  0  0  0  0  0  0  0  0  0  0  0
   -5.0656   -0.9396   -1.5457 C   0  0  0  0  0  0  0  0  0  0  0  0
   -3.7867   -0.4691   -1.6839 C   0  0  0  0  0  0  0  0  0  0  0  0
   -6.9611   -1.7311   -0.1865 C   0  0  0  0  0  0  0  0  0  0  0  0
    2.3863    2.0590   -0.6989 H   0  0  0  0  0  0  0  0  0  0  0  0
   -1.3141    2.9510    0.0596 H   0  0  0  0  0  0  0  0  0  0  0  0
   -2.1270    5.2884    0.0267 H   0  0  0  0  0  0  0  0  0  0  0  0
   -0.5661    7.1752   -0.5270 H   0  0  0  0  0  0  0  0  0  0  0  0
    1.8409    6.6749   -1.0483 H   0  0  0  0  0  0  0  0  0  0  0  0
    2.6653    4.3201   -1.0069 H   0  0  0  0  0  0  0  0  0  0  0  0
    0.0280    2.3338    2.2886 H   0  0  0  0  0  0  0  0  0  0  0  0
    0.8484    0.7426    2.3641 H   0  0  0  0  0  0  0  0  0  0  0  0
   -1.7064    1.5022    3.9708 H   0  0  0  0  0  0  0  0  0  0  0  0
   -0.0454    1.4092    4.6417 H   0  0  0  0  0  0  0  0  0  0  0  0
   -0.8463   -0.0813    4.0408 H   0  0  0  0  0  0  0  0  0  0  0  0
   -1.2852    0.3458   -1.7759 H   0  0  0  0  0  0  0  0  0  0  0  0
   -3.0505   -0.1759    1.6624 H   0  0  0  0  0  0  0  0  0  0  0  0
   -5.3798   -1.0379    1.7783 H   0  0  0  0  0  0  0  0  0  0  0  0
   -5.6986   -1.1910   -2.4082 H   0  0  0  0  0  0  0  0  0  0  0  0
   -3.3818   -0.3392   -2.6974 H   0  0  0  0  0  0  0  0  0  0  0  0
   -7.4229   -1.4292    0.7718 H   0  0  0  0  0  0  0  0  0  0  0  0
   -6.9088   -2.8404   -0.2225 H   0  0  0  0  0  0  0  0  0  0  0  0
   -7.6094   -1.3795   -1.0115 H   0  0  0  0  0  0  0  0  0  0  0  0
  1  9  1  0  0  0  0
  2  1  2  0  0  0  0
  3  2  1  0  0  0  0
  3  4  1  0  0  0  0
  4 22  1  0  0  0  0
  5  4  2  0  0  0  0
  5 23  1  0  0  0  0
  6  5  1  0  0  0  0
  7  8  1  0  0  0  0
  7  6  2  0  0  0  0
  8  3  2  0  0  0  0
  9 10  1  0  0  0  0
 10 11  1  0  0  0  0
 11 12  1  0  0  0  0
 12 29  1  0  0  0  0
 12 31  1  0  0  0  0
 12 30  1  0  0  0  0
 13 14  1  0  0  0  0
 13  9  2  0  0  0  0
 14 15  2  0  0  0  0
 15 16  1  0  0  0  0
 15 33  1  0  0  0  0
 16 34  1  0  0  0  0
 17 20  1  0  0  0  0
 17 16  1  0  0  0  0
 18 17  1  0  0  0  0
 19 18  2  0  0  0  0
 19 14  1  0  0  0  0
 20 37  1  0  0  0  0
 21  2  1  0  0  0  0
 24  6  1  0  0  0  0
 25  7  1  0  0  0  0
 26  8  1  0  0  0  0
 27 11  1  0  0  0  0
 28 11  1  0  0  0  0
 32 13  1  0  0  0  0
 35 18  1  0  0  0  0
 36 19  1  0  0  0  0
 38 20  1  0  0  0  0
 39 20  1  0  0  0  0
M  END
