4
q = -1.0, confidence = 0.0

 13 12  0  0  0  0  0  0  0  0999 V2000
   -3.6226   -1.9218    0.4052 O   0  0  0  0  0  0  0  0  0  0  0  0
   -0.9465    1.8333    2.6004 O   0  0  0  0  0  0  0  0  0  0  0  0
   -2.7469    0.4629    2.4494 O   0  0  0  0  0  0  0  0  0  0  0  0
   -2.5096   -1.4613    0.4630 C   0  0  0  0  0  3  0  0  0  0  0  0
   -1.2533   -1.5668    1.1609 C   0  0  0  0  0  3  0  0  0  0  0  0
   -0.6799   -2.5081    1.2193 H   0  0  0  0  0  0  0  0  0  0  0  0
   -0.6835   -0.3149    1.5612 C   0  0  0  0  0  3  0  0  0  0  0  0
    0.3770   -0.3170    1.8588 H   0  0  0  0  0  0  0  0  0  0  0  0
   -1.4367    0.7658    2.2391 C   0  0  0  0  0  0  0  0  0  0  0  0
   -3.5323    1.4919    3.0528 C   0  0  0  0  0  0  0  0  0  0  0  0
   -3.1029    1.8008    4.0269 H   0  0  0  0  0  0  0  0  0  0  0  0
   -4.5405    1.0625    3.1923 H   0  0  0  0  0  0  0  0  0  0  0  0
   -3.5866    2.3891    2.4014 H   0  0  0  0  0  0  0  0  0  0  0  0
  1  4  2  0  0  0  0
  3 10  1  0  0  0  0
  4  5  1  0  0  0  0
  5  6  1  0  0  0  0
  5  7  1  0  0  0  0
  7  8  1  0  0  0  0
  7  9  1  0  0  0  0
  9  3  1  0  0  0  0
  9  2  2  0  0  0  0
 10 12  1  0  0  0  0
 10 11  1  0  0  0  0
 13 10  1  0  0  0  0
M  END
