7
q = 0.0, confidence = 0.994

 25 26  0  0  0  0  0  0  0  0999 V2000
   -1.3720    1.8549    0.3526 C   0  0  0  0  0  0  0  0  0  0  0  0
   -0.0325    1.5323   -0.0189 C   0  0  0  0  0  3  0  0  0  0  0  0
    0.4042    2.0327   -0.8937 H   0  0  0  0  0  0  0  0  0  0  0  0
    0.7539    0.5660    0.6934 C   0  0  0  0  0  0  0  0  0  0  0  0
    0.1112   -0.1601    1.7463 C   0  0  0  0  0  0  0  0  0  0  0  0
    0.6603   -0.9429    2.2857 H   0  0  0  0  0  0  0  0  0  0  0  0
   -1.2319    0.1277    2.1044 C   0  0  0  0  0  3  0  0  0  0  0  0
   -1.7126   -0.4553    2.9041 H   0  0  0  0  0  0  0  0  0  0  0  0
   -1.9728    1.1330    1.4301 C   0  0  0  0  0  0  0  0  0  0  0  0
   -3.0194    1.3252    1.7047 H   0  0  0  0  0  0  0  0  0  0  0  0
   -2.1270    2.9324   -0.3682 C   0  0  0  0  0  0  0  0  0  0  0  0
   -1.7859    3.0487   -1.4139 H   0  0  0  0  0  0  0  0  0  0  0  0
   -1.9471    3.8971    0.1520 H   0  0  0  0  0  0  0  0  0  0  0  0
   -3.2177    2.7503   -0.3623 H   0  0  0  0  0  0  0  0  0  0  0  0
    2.1602    0.3078    0.3245 C   0  0  0  0  0  0  0  0  0  0  0  0
    2.9454    1.3470   -0.2282 C   0  0  0  0  0  0  0  0  0  0  0  0
    2.5176    2.3501   -0.3728 H   0  0  0  0  0  0  0  0  0  0  0  0
    4.2902    1.1265   -0.5482 C   0  0  0  0  0  0  0  0  0  0  0  0
    4.8939    1.9478   -0.9609 H   0  0  0  0  0  0  0  0  0  0  0  0
    4.8666   -0.1358   -0.3355 C   0  0  0  0  0  0  0  0  0  0  0  0
    5.9217   -0.3097   -0.5936 H   0  0  0  0  0  0  0  0  0  0  0  0
    4.0954   -1.1775    0.2077 C   0  0  0  0  0  0  0  0  0  0  0  0
    4.5412   -2.1702    0.3662 H   0  0  0  0  0  0  0  0  0  0  0  0
    2.7552   -0.9579    0.5412 C   0  0  0  0  0  0  0  0  0  0  0  0
    2.1607   -1.7933    0.9401 H   0  0  0  0  0  0  0  0  0  0  0  0
  1  9  2  0  0  0  0
  2  1  1  0  0  0  0
  2  4  1  0  0  0  0
  3  2  1  0  0  0  0
  4  5  2  0  0  0  0
  5  7  1  0  0  0  0
  5  6  1  0  0  0  0
  7  8  1  0  0  0  0
  9 10  1  0  0  0  0
  9  7  1  0  0  0  0
 11 14  1  0  0  0  0
 11 13  1  0  0  0  0
 11  1  1  0  0  0  0
 12 11  1  0  0  0  0
 15 24  1  0  0  0  0
 15  4  1  0  0  0  0
 16 15  2  0  0  0  0
 17 16  1  0  0  0  0
 18 20  2  0  0  0  0
 18 16  1  0  0  0  0
 19 18  1  0  0  0  0
 20 22  1  0  0  0  0
 21 20  1  0  0  0  0
 22 23  1  0  0  0  0
 22 24  2  0  0  0  0
 24 25  1  0  0  0  0
M  END
