3
q = 0.0, confidence = 0.914

 24 25  0  0  0  0  0  0  0  0999 V2000
   -5.0681    1.6680   -0.6114 Br  0  0  0  0  0  0  0  0  0  0  0  0
   -1.7733   -2.4895   -1.9062 Br  0  0  0  0  0  0  0  0  0  0  0  0
   -2.1355    0.0643   -0.0053 C   0  0  0  0  0  2  0  0  0  0  0  0
   -1.8812    1.3510   -0.1378 C   0  0  0  0  0  2  0  0  0  0  0  0
   -2.3727    2.6930   -0.3482 C   0  0  0  0  0  0  0  0  0  0  0  0
   -1.4469    3.7701   -0.3529 C   0  0  0  0  0  0  0  0  0  0  0  0
   -0.3875    3.5144   -0.2054 H   0  0  0  0  0  0  0  0  0  0  0  0
   -1.8485    5.0962   -0.5285 C   0  0  0  0  0  0  0  0  0  0  0  0
   -1.0977    5.9005   -0.5152 H   0  0  0  0  0  0  0  0  0  0  0  0
   -3.2081    5.3940   -0.7235 C   0  0  0  0  0  0  0  0  0  0  0  0
   -3.5402    6.4332   -0.8681 H   0  0  0  0  0  0  0  0  0  0  0  0
   -4.1525    4.3569   -0.7421 C   0  0  0  0  0  0  0  0  0  0  0  0
   -5.2188    4.5710   -0.9022 H   0  0  0  0  0  0  0  0  0  0  0  0
   -3.7396    3.0289   -0.5574 C   0  0  0  0  0  0  0  0  0  0  0  0
   -2.9861   -1.0615    0.2973 C   0  0  0  0  0  0  0  0  0  0  0  0
   -3.8810   -0.9944    1.3989 C   0  0  0  0  0  0  0  0  0  0  0  0
   -3.9596   -0.0389    1.9363 H   0  0  0  0  0  0  0  0  0  0  0  0
   -4.6275   -2.1043    1.8071 C   0  0  0  0  0  0  0  0  0  0  0  0
   -5.3067   -2.0159    2.6687 H   0  0  0  0  0  0  0  0  0  0  0  0
   -4.5120   -3.3235    1.1191 C   0  0  0  0  0  0  0  0  0  0  0  0
   -5.0911   -4.2038    1.4362 H   0  0  0  0  0  0  0  0  0  0  0  0
   -3.6516   -3.4202    0.0162 C   0  0  0  0  0  0  0  0  0  0  0  0
   -3.5504   -4.3634   -0.5384 H   0  0  0  0  0  0  0  0  0  0  0  0
   -2.9033   -2.3053   -0.3837 C   0  0  0  0  0  0  0  0  0  0  0  0
  1 14  1  0  0  0  0
  2 24  1  0  0  0  0
  3 15  1  0  0  0  0
  4  3  1  0  0  0  0
  5  4  1  0  0  0  0
  6  5  1  0  0  0  0
  6  7  1  0  0  0  0
  8  9  1  0  0  0  0
  8  6  2  0  0  0  0
 10  8  1  0  0  0  0
 11 10  1  0  0  0  0
 12 10  2  0  0  0  0
 12 14  1  0  0  0  0
 13 12  1  0  0  0  0
 14  5  2  0  0  0  0
 15 16  1  0  0  0  0
 16 18  2  0  0  0  0
 16 17  1  0  0  0  0
 18 19  1  0  0  0  0
 20 21  1  0  0  0  0
 20 18  1  0  0  0  0
 22 20  2  0  0  0  0
 23 22  1  0  0  0  0
 24 22  1  0  0  0  0
 24 15  2  0  0  0  0
M  END
