23
q = -1.0, confidence = 0.016

 25 26  0  0  1  0  0  0  0  0999 V2000
   -2.8482   -0.8389   -1.3343 C   0  0  0  0  0  3  0  0  0  0  0  0
   -2.5459   -1.1443   -2.3511 H   0  0  0  0  0  0  0  0  0  0  0  0
   -2.6385    0.5009   -0.9063 C   0  0  1  0  0  3  0  0  0  0  0  0
   -3.4233    0.9356    0.3175 C   0  0  2  0  0  0  0  0  0  0  0  0
   -3.1749    1.9726    0.6217 H   0  0  0  0  0  0  0  0  0  0  0  0
   -3.3657   -0.2073    1.3739 C   0  0  0  0  0  0  0  0  0  0  0  0
   -2.4048   -0.7550    1.4648 H   0  0  0  0  0  0  0  0  0  0  0  0
   -3.6938    0.1265    2.3747 H   0  0  0  0  0  0  0  0  0  0  0  0
   -4.4967   -0.8874    0.5569 C   0  0  2  0  0  0  0  0  0  0  0  0
   -5.2458   -1.4974    1.1031 H   0  0  0  0  0  0  0  0  0  0  0  0
   -3.8736   -1.6789   -0.6061 C   0  0  0  0  0  0  0  0  0  0  0  0
   -4.6592   -2.0106   -1.3206 H   0  0  0  0  0  0  0  0  0  0  0  0
   -3.3842   -2.6030   -0.2254 H   0  0  0  0  0  0  0  0  0  0  0  0
   -4.9439    0.5540    0.1033 C   0  0  0  0  0  0  0  0  0  0  0  0
   -5.5652    0.7389   -1.2806 C   0  0  0  0  0  0  0  0  0  0  0  0
   -5.6951    1.8182   -1.5061 H   0  0  0  0  0  0  0  0  0  0  0  0
   -6.5710    0.2705   -1.3157 H   0  0  0  0  0  0  0  0  0  0  0  0
   -4.9599    0.3003   -2.0956 H   0  0  0  0  0  0  0  0  0  0  0  0
   -5.8486    1.2307    1.1403 C   0  0  0  0  0  0  0  0  0  0  0  0
   -5.4688    1.1395    2.1758 H   0  0  0  0  0  0  0  0  0  0  0  0
   -6.8630    0.7809    1.1154 H   0  0  0  0  0  0  0  0  0  0  0  0
   -5.9573    2.3123    0.9158 H   0  0  0  0  0  0  0  0  0  0  0  0
   -1.5391    1.2254   -1.4633 C   0  0  0  0  0  3  0  0  0  0  0  0
   -1.2759    2.2094   -1.0445 H   0  0  0  0  0  0  0  0  0  0  0  0
   -1.2769    1.0854   -2.5273 H   0  0  0  0  0  0  0  0  0  0  0  0
  1  3  1  0  0  0  0
  1 11  1  0  0  0  0
  2  1  1  0  0  0  0
  3 23  1  1  0  0  0
  3  4  1  0  0  0  0
  4  5  1  1  0  0  0
  4  6  1  0  0  0  0
  6  7  1  0  0  0  0
  6  8  1  0  0  0  0
  9 10  1  1  0  0  0
  9  6  1  0  0  0  0
 11 13  1  0  0  0  0
 11  9  1  0  0  0  0
 12 11  1  0  0  0  0
 14  4  1  0  0  0  0
 14  9  1  0  0  0  0
 14 19  1  0  0  0  0
 15 14  1  0  0  0  0
 16 15  1  0  0  0  0
 17 15  1  0  0  0  0
 18 15  1  0  0  0  0
 19 20  1  0  0  0  0
 21 19  1  0  0  0  0
 22 19  1  0  0  0  0
 23 24  1  0  0  0  0
 25 23  1  0  0  0  0
M  END
