3
q = 0.0, confidence = 0.996

 47 49  0  0  0  0  0  0  0  0999 V2000
    1.3011   -1.4929   -0.1262 N   0  0  0  0  0  0  0  0  0  0  0  0
   -0.8459   -1.7285   -0.2938 N   0  0  0  0  0  0  0  0  0  0  0  0
    0.1303   -0.7999   -0.0519 C   0  0  0  0  0  2  0  0  0  0  0  0
    1.0690   -2.8290   -0.4202 C   0  0  0  0  0  0  0  0  0  0  0  0
    1.8791   -3.5543   -0.5350 H   0  0  0  0  0  0  0  0  0  0  0  0
   -0.2899   -2.9810   -0.5274 C   0  0  0  0  0  0  0  0  0  0  0  0
   -0.9071   -3.8541   -0.7564 H   0  0  0  0  0  0  0  0  0  0  0  0
   -2.2543   -1.4309   -0.3169 C   0  0  0  0  0  0  0  0  0  0  0  0
   -2.8097   -0.8704   -1.4889 C   0  0  0  0  0  0  0  0  0  0  0  0
   -4.1811   -0.5617   -1.4670 C   0  0  0  0  0  0  0  0  0  0  0  0
   -4.6344   -0.1200   -2.3688 H   0  0  0  0  0  0  0  0  0  0  0  0
   -4.9844   -0.7986   -0.3358 C   0  0  0  0  0  0  0  0  0  0  0  0
   -4.3901   -1.3860    0.7962 C   0  0  0  0  0  0  0  0  0  0  0  0
   -5.0061   -1.5908    1.6863 H   0  0  0  0  0  0  0  0  0  0  0  0
   -3.0242   -1.7164    0.8313 C   0  0  0  0  0  0  0  0  0  0  0  0
   -1.9670   -0.6211   -2.7099 C   0  0  0  0  0  0  0  0  0  0  0  0
   -2.5941   -0.3024   -3.5634 H   0  0  0  0  0  0  0  0  0  0  0  0
   -1.4100   -1.5327   -3.0108 H   0  0  0  0  0  0  0  0  0  0  0  0
   -1.2010    0.1645   -2.5281 H   0  0  0  0  0  0  0  0  0  0  0  0
   -6.4407   -0.4081   -0.3304 C   0  0  0  0  0  0  0  0  0  0  0  0
   -7.0256   -1.0141    0.3888 H   0  0  0  0  0  0  0  0  0  0  0  0
   -6.8978   -0.5202   -1.3334 H   0  0  0  0  0  0  0  0  0  0  0  0
   -6.5605    0.6569   -0.0363 H   0  0  0  0  0  0  0  0  0  0  0  0
   -2.4072   -2.3586    2.0473 C   0  0  0  0  0  0  0  0  0  0  0  0
   -1.4961   -1.8223    2.3780 H   0  0  0  0  0  0  0  0  0  0  0  0
   -2.1067   -3.4084    1.8458 H   0  0  0  0  0  0  0  0  0  0  0  0
   -3.1200   -2.3673    2.8928 H   0  0  0  0  0  0  0  0  0  0  0  0
    2.6308   -0.8787    0.0506 C   0  0  0  0  0  0  0  0  0  0  0  0
    2.4009    0.1960    0.2131 H   0  0  0  0  0  0  0  0  0  0  0  0
    3.2899   -1.4343    1.3191 C   0  0  0  0  0  0  0  0  0  0  0  0
    2.5968   -1.2398    2.1650 H   0  0  0  0  0  0  0  0  0  0  0  0
    3.3782   -2.5414    1.2351 H   0  0  0  0  0  0  0  0  0  0  0  0
    4.6760   -0.8598    1.6413 C   0  0  0  0  0  0  0  0  0  0  0  0
    4.6259    0.2501    1.6965 H   0  0  0  0  0  0  0  0  0  0  0  0
    4.9426   -1.1977    2.6642 H   0  0  0  0  0  0  0  0  0  0  0  0
    5.7796   -1.3031    0.6659 C   0  0  0  0  0  0  0  0  0  0  0  0
    6.7584   -1.3036    1.1897 H   0  0  0  0  0  0  0  0  0  0  0  0
    5.5933   -2.3678    0.4011 H   0  0  0  0  0  0  0  0  0  0  0  0
    5.9264   -0.4677   -0.6192 C   0  0  0  0  0  0  0  0  0  0  0  0
    6.5232   -1.0614   -1.3449 H   0  0  0  0  0  0  0  0  0  0  0  0
    6.5405    0.4325   -0.4014 H   0  0  0  0  0  0  0  0  0  0  0  0
    4.6215    0.0004   -1.2899 C   0  0  0  0  0  0  0  0  0  0  0  0
    4.8434    0.2531   -2.3468 H   0  0  0  0  0  0  0  0  0  0  0  0
    4.2766    0.9555   -0.8393 H   0  0  0  0  0  0  0  0  0  0  0  0
    3.4373   -0.9771   -1.2555 C   0  0  0  0  0  0  0  0  0  0  0  0
    3.7733   -2.0227   -1.4375 H   0  0  0  0  0  0  0  0  0  0  0  0
    2.7338   -0.7064   -2.0677 H   0  0  0  0  0  0  0  0  0  0  0  0
  1  3  1  0  0  0  0
  1 28  1  0  0  0  0
  2  3  1  0  0  0  0
  4  1  1  0  0  0  0
  5  4  1  0  0  0  0
  6  4  2  0  0  0  0
  6  2  1  0  0  0  0
  7  6  1  0  0  0  0
  8  2  1  0  0  0  0
  8 15  1  0  0  0  0
  9 10  1  0  0  0  0
  9  8  2  0  0  0  0
 10 12  2  0  0  0  0
 11 10  1  0  0  0  0
 12 20  1  0  0  0  0
 12 13  1  0  0  0  0
 13 15  2  0  0  0  0
 13 14  1  0  0  0  0
 15 24  1  0  0  0  0
 16 19  1  0  0  0  0
 16  9  1  0  0  0  0
 17 16  1  0  0  0  0
 18 16  1  0  0  0  0
 20 23  1  0  0  0  0
 20 21  1  0  0  0  0
 22 20  1  0  0  0  0
 24 25  1  0  0  0  0
 24 27  1  0  0  0  0
 26 24  1  0  0  0  0
 28 29  1  0  0  0  0
 28 30  1  0  0  0  0
 30 33  1  0  0  0  0
 30 31  1  0  0  0  0
 32 30  1  0  0  0  0
 33 34  1  0  0  0  0
 33 35  1  0  0  0  0
 36 37  1  0  0  0  0
 36 33  1  0  0  0  0
 38 36  1  0  0  0  0
 39 41  1  0  0  0  0
 39 36  1  0  0  0  0
 40 39  1  0  0  0  0
 42 45  1  0  0  0  0
 42 44  1  0  0  0  0
 42 39  1  0  0  0  0
 43 42  1  0  0  0  0
 45 28  1  0  0  0  0
 46 45  1  0  0  0  0
 47 45  1  0  0  0  0
M  END
