3
q = 0.0, confidence = 1.0

 54 57  0  0  1  0  0  0  0  0999 V2000
   -0.9472   -1.3224   -0.1276 N   0  0  0  0  0  0  0  0  0  0  0  0
    1.2017   -1.6103   -0.0341 N   0  0  0  0  0  0  0  0  0  0  0  0
    0.2384   -0.6380   -0.1076 C   0  0  0  0  0  2  0  0  0  0  0  0
   -0.7290   -2.6931   -0.0627 C   0  0  0  0  0  0  0  0  0  0  0  0
   -1.5470   -3.4191   -0.0627 H   0  0  0  0  0  0  0  0  0  0  0  0
    0.6286   -2.8775   -0.0057 C   0  0  0  0  0  0  0  0  0  0  0  0
    1.2350   -3.7858    0.0522 H   0  0  0  0  0  0  0  0  0  0  0  0
    2.6128   -1.3338    0.0209 C   0  0  0  0  0  0  0  0  0  0  0  0
    3.3444   -1.2979   -1.1847 C   0  0  0  0  0  0  0  0  0  0  0  0
    4.7220   -1.0325   -1.1013 C   0  0  0  0  0  0  0  0  0  0  0  0
    5.3111   -0.9991   -2.0316 H   0  0  0  0  0  0  0  0  0  0  0  0
    5.3611   -0.7954    0.1301 C   0  0  0  0  0  0  0  0  0  0  0  0
    4.5861   -0.8270    1.3047 C   0  0  0  0  0  0  0  0  0  0  0  0
    5.0680   -0.6320    2.2760 H   0  0  0  0  0  0  0  0  0  0  0  0
    3.2055   -1.0881    1.2778 C   0  0  0  0  0  0  0  0  0  0  0  0
    2.6541   -1.4889   -2.5093 C   0  0  0  0  0  0  0  0  0  0  0  0
    3.3805   -1.4809   -3.3431 H   0  0  0  0  0  0  0  0  0  0  0  0
    1.9205   -0.6729   -2.6821 H   0  0  0  0  0  0  0  0  0  0  0  0
    2.0875   -2.4418   -2.5519 H   0  0  0  0  0  0  0  0  0  0  0  0
    6.8320   -0.4691    0.1866 C   0  0  0  0  0  0  0  0  0  0  0  0
    7.2946   -0.8255    1.1279 H   0  0  0  0  0  0  0  0  0  0  0  0
    6.9911    0.6298    0.1407 H   0  0  0  0  0  0  0  0  0  0  0  0
    7.3839   -0.9150   -0.6639 H   0  0  0  0  0  0  0  0  0  0  0  0
    2.3705   -1.0576    2.5303 C   0  0  0  0  0  0  0  0  0  0  0  0
    3.0043   -0.9666    3.4320 H   0  0  0  0  0  0  0  0  0  0  0  0
    1.7414   -1.9652    2.6347 H   0  0  0  0  0  0  0  0  0  0  0  0
    1.6777   -0.1889    2.5054 H   0  0  0  0  0  0  0  0  0  0  0  0
   -2.2586   -0.6619   -0.1601 C   0  0  1  0  0  0  0  0  0  0  0  0
   -1.9808    0.4042   -0.2665 H   0  0  0  0  0  0  0  0  0  0  0  0
   -3.0885   -1.0694   -1.4097 C   0  0  0  0  0  0  0  0  0  0  0  0
   -2.8859   -0.3390   -2.2200 H   0  0  0  0  0  0  0  0  0  0  0  0
   -2.7460   -2.0543   -1.7911 H   0  0  0  0  0  0  0  0  0  0  0  0
   -4.5895   -1.1637   -1.1092 C   0  0  2  0  0  0  0  0  0  0  0  0
   -5.1680   -1.3397   -2.0405 H   0  0  0  0  0  0  0  0  0  0  0  0
   -5.0843   -0.0082   -0.1658 C   0  0  0  0  0  0  0  0  0  0  0  0
   -4.5182   -0.9133    0.9960 C   0  0  2  0  0  0  0  0  0  0  0  0
   -5.0462   -0.8586    1.9717 H   0  0  0  0  0  0  0  0  0  0  0  0
   -2.9955   -0.8094    1.2087 C   0  0  2  0  0  0  0  0  0  0  0  0
   -2.6871   -1.7859    1.6456 H   0  0  0  0  0  0  0  0  0  0  0  0
   -4.7872   -2.1369    0.0805 C   0  0  0  0  0  0  0  0  0  0  0  0
   -5.8150   -2.5343    0.1592 H   0  0  0  0  0  0  0  0  0  0  0  0
   -4.0778   -2.9882    0.1608 H   0  0  0  0  0  0  0  0  0  0  0  0
   -6.6195    0.0530   -0.1073 C   0  0  0  0  0  0  0  0  0  0  0  0
   -7.0930   -0.9349    0.0494 H   0  0  0  0  0  0  0  0  0  0  0  0
   -7.0253    0.4739   -1.0505 H   0  0  0  0  0  0  0  0  0  0  0  0
   -6.9459    0.7151    0.7212 H   0  0  0  0  0  0  0  0  0  0  0  0
   -4.5783    1.4187   -0.3919 C   0  0  0  0  0  0  0  0  0  0  0  0
   -3.4827    1.5160   -0.4856 H   0  0  0  0  0  0  0  0  0  0  0  0
   -4.8968    2.0814    0.4390 H   0  0  0  0  0  0  0  0  0  0  0  0
   -5.0218    1.8310   -1.3223 H   0  0  0  0  0  0  0  0  0  0  0  0
   -2.5657    0.2863    2.1888 C   0  0  0  0  0  0  0  0  0  0  0  0
   -1.4617    0.3212    2.2907 H   0  0  0  0  0  0  0  0  0  0  0  0
   -2.9993    0.1085    3.1933 H   0  0  0  0  0  0  0  0  0  0  0  0
   -2.8911    1.2890    1.8488 H   0  0  0  0  0  0  0  0  0  0  0  0
  1  3  1  0  0  0  0
  1  4  1  0  0  0  0
  2  6  1  0  0  0  0
  2  8  1  0  0  0  0
  3  2  1  0  0  0  0
  4  5  1  0  0  0  0
  4  6  2  0  0  0  0
  6  7  1  0  0  0  0
  8 15  1  0  0  0  0
  9 10  1  0  0  0  0
  9  8  2  0  0  0  0
 10 12  2  0  0  0  0
 11 10  1  0  0  0  0
 12 20  1  0  0  0  0
 12 13  1  0  0  0  0
 13 14  1  0  0  0  0
 15 13  2  0  0  0  0
 15 24  1  0  0  0  0
 16  9  1  0  0  0  0
 17 16  1  0  0  0  0
 18 16  1  0  0  0  0
 19 16  1  0  0  0  0
 20 21  1  0  0  0  0
 22 20  1  0  0  0  0
 23 20  1  0  0  0  0
 24 26  1  0  0  0  0
 24 25  1  0  0  0  0
 27 24  1  0  0  0  0
 28 29  1  6  0  0  0
 28  1  1  0  0  0  0
 28 38  1  0  0  0  0
 30 33  1  0  0  0  0
 30 28  1  0  0  0  0
 31 30  1  0  0  0  0
 32 30  1  0  0  0  0
 33 34  1  6  0  0  0
 33 35  1  0  0  0  0
 33 40  1  0  0  0  0
 35 43  1  0  0  0  0
 35 36  1  0  0  0  0
 36 38  1  0  0  0  0
 36 37  1  1  0  0  0
 38 39  1  1  0  0  0
 38 51  1  0  0  0  0
 40 41  1  0  0  0  0
 40 42  1  0  0  0  0
 40 36  1  0  0  0  0
 43 44  1  0  0  0  0
 43 46  1  0  0  0  0
 45 43  1  0  0  0  0
 47 35  1  0  0  0  0
 47 49  1  0  0  0  0
 48 47  1  0  0  0  0
 50 47  1  0  0  0  0
 51 52  1  0  0  0  0
 51 53  1  0  0  0  0
 54 51  1  0  0  0  0
M  END
