1
q = -1.0, confidence = 0.012

 32 32  0  0  0  0  0  0  0  0999 V2000
   -0.5318   -0.2639    0.0004 C   0  0  0  0  0  1  0  0  0  0  0  0
    0.7058   -0.3776    0.0003 C   0  0  0  0  0  2  0  0  0  0  0  0
    6.3050   -1.0107   -0.0001 O   0  0  0  0  0  0  0  0  0  0  0  0
    2.1250   -0.5113    0.0003 C   0  0  0  0  0  0  0  0  0  0  0  0
    2.7460   -1.7918   -0.0002 C   0  0  0  0  0  0  0  0  0  0  0  0
    2.1088   -2.6880   -0.0005 H   0  0  0  0  0  0  0  0  0  0  0  0
    4.1329   -1.9233   -0.0003 C   0  0  0  0  0  0  0  0  0  0  0  0
    4.6137   -2.9125   -0.0007 H   0  0  0  0  0  0  0  0  0  0  0  0
    4.9616   -0.7792    0.0000 C   0  0  0  0  0  0  0  0  0  0  0  0
    8.6178   -0.4263   -0.0001 C   0  0  0  0  0  0  0  0  0  0  0  0
    8.7538   -1.0796   -0.8888 H   0  0  0  0  0  0  0  0  0  0  0  0
    8.7541   -1.0799    0.8883 H   0  0  0  0  0  0  0  0  0  0  0  0
    9.6629    0.6913   -0.0001 C   0  0  0  0  0  0  0  0  0  0  0  0
    9.5072    1.3465    0.8869 H   0  0  0  0  0  0  0  0  0  0  0  0
    9.5069    1.3468   -0.8867 H   0  0  0  0  0  0  0  0  0  0  0  0
    2.9730    0.6237    0.0006 C   0  0  0  0  0  0  0  0  0  0  0  0
    2.5159    1.6240    0.0010 H   0  0  0  0  0  0  0  0  0  0  0  0
    4.3687    0.5008    0.0005 C   0  0  0  0  0  0  0  0  0  0  0  0
    4.9861    1.4091    0.0009 H   0  0  0  0  0  0  0  0  0  0  0  0
    7.1909    0.1002    0.0002 C   0  0  0  0  0  0  0  0  0  0  0  0
    7.0095    0.7392    0.8975 H   0  0  0  0  0  0  0  0  0  0  0  0
    7.0094    0.7398   -0.8967 H   0  0  0  0  0  0  0  0  0  0  0  0
   11.1058    0.1797   -0.0004 C   0  0  0  0  0  0  0  0  0  0  0  0
   11.2631   -0.4758   -0.8868 H   0  0  0  0  0  0  0  0  0  0  0  0
   11.2634   -0.4761    0.8858 H   0  0  0  0  0  0  0  0  0  0  0  0
   12.1574    1.2932   -0.0003 C   0  0  0  0  0  0  0  0  0  0  0  0
   11.9948    1.9471   -0.8861 H   0  0  0  0  0  0  0  0  0  0  0  0
   11.9951    1.9468    0.8858 H   0  0  0  0  0  0  0  0  0  0  0  0
   13.5954    0.7736   -0.0007 C   0  0  0  0  0  0  0  0  0  0  0  0
   13.7974    0.1460    0.8926 H   0  0  0  0  0  0  0  0  0  0  0  0
   14.3327    1.6015   -0.0006 H   0  0  0  0  0  0  0  0  0  0  0  0
   13.7971    0.1463   -0.8942 H   0  0  0  0  0  0  0  0  0  0  0  0
  2  1  1  0  0  0  0
  3  9  1  0  0  0  0
  3 20  1  0  0  0  0
  4  2  1  0  0  0  0
  4 16  1  0  0  0  0
  5  4  2  0  0  0  0
  6  5  1  0  0  0  0
  7  5  1  0  0  0  0
  7  9  2  0  0  0  0
  8  7  1  0  0  0  0
  9 18  1  0  0  0  0
 10 13  1  0  0  0  0
 10 20  1  0  0  0  0
 10 12  1  0  0  0  0
 11 10  1  0  0  0  0
 13 14  1  0  0  0  0
 15 13  1  0  0  0  0
 16 17  1  0  0  0  0
 18 16  2  0  0  0  0
 18 19  1  0  0  0  0
 20 21  1  0  0  0  0
 22 20  1  0  0  0  0
 23 26  1  0  0  0  0
 23 13  1  0  0  0  0
 23 25  1  0  0  0  0
 24 23  1  0  0  0  0
 26 28  1  0  0  0  0
 27 26  1  0  0  0  0
 29 31  1  0  0  0  0
 29 26  1  0  0  0  0
 29 30  1  0  0  0  0
 32 29  1  0  0  0  0
M  END
