3
q = -1.0, confidence = 0.0

 34 35  0  0  1  0  0  0  0  0999 V2000
   -1.7921   -2.9094   -1.0449 N   0  0  0  0  0  0  0  0  0  0  0  0
   -1.4275    0.0272   -1.4251 C   0  0  1  0  0  3  0  0  0  0  0  0
   -0.0751   -0.4700   -1.5038 C   0  0  0  0  0  3  0  0  0  0  0  0
    0.2749   -1.4290   -1.1089 H   0  0  0  0  0  0  0  0  0  0  0  0
    0.7266    0.4629   -2.2221 C   0  0  2  0  0  3  0  0  0  0  0  0
   -0.1177    1.5687   -2.5942 C   0  0  0  0  0  0  0  0  0  0  0  0
   -1.4210    1.2937   -2.1032 C   0  0  0  0  0  0  0  0  0  0  0  0
   -2.2882    1.9492   -2.2379 H   0  0  0  0  0  0  0  0  0  0  0  0
    2.1560    0.2885   -2.6344 C   0  0  0  0  0  0  0  0  0  0  0  0
    2.6135   -0.5973   -2.1568 H   0  0  0  0  0  0  0  0  0  0  0  0
    2.7675    1.1741   -2.3719 H   0  0  0  0  0  0  0  0  0  0  0  0
    2.2184    0.1577   -3.7363 H   0  0  0  0  0  0  0  0  0  0  0  0
    0.2908    2.7373   -3.4354 C   0  0  0  0  0  0  0  0  0  0  0  0
    0.4676    2.4177   -4.4847 H   0  0  0  0  0  0  0  0  0  0  0  0
    1.2275    3.1942   -3.0581 H   0  0  0  0  0  0  0  0  0  0  0  0
   -0.4921    3.5193   -3.4418 H   0  0  0  0  0  0  0  0  0  0  0  0
   -2.6224   -0.5860   -0.8001 C   0  0  0  0  0  0  0  0  0  0  0  0
   -2.7601   -1.9944   -0.5628 C   0  0  0  0  0  0  0  0  0  0  0  0
   -3.8870   -2.4534    0.1595 C   0  0  0  0  0  0  0  0  0  0  0  0
   -3.9966   -3.5267    0.3622 H   0  0  0  0  0  0  0  0  0  0  0  0
   -4.8976   -1.5797    0.5829 C   0  0  0  0  0  0  0  0  0  0  0  0
   -5.7628   -1.9764    1.1358 H   0  0  0  0  0  0  0  0  0  0  0  0
   -4.8101   -0.2158    0.2763 C   0  0  0  0  0  0  0  0  0  0  0  0
   -5.5980    0.4845    0.5899 H   0  0  0  0  0  0  0  0  0  0  0  0
   -3.6804    0.2612   -0.3978 C   0  0  0  0  0  0  0  0  0  0  0  0
   -3.5742    1.3433   -0.5550 H   0  0  0  0  0  0  0  0  0  0  0  0
   -1.7764   -4.2336   -0.4577 C   0  0  0  0  0  0  0  0  0  0  0  0
   -1.7530   -4.1672    0.6479 H   0  0  0  0  0  0  0  0  0  0  0  0
   -0.8627   -4.7622   -0.7927 H   0  0  0  0  0  0  0  0  0  0  0  0
   -2.6505   -4.8691   -0.7524 H   0  0  0  0  0  0  0  0  0  0  0  0
   -1.6182   -2.9567   -2.4945 C   0  0  0  0  0  0  0  0  0  0  0  0
   -2.4055   -3.5831   -2.9825 H   0  0  0  0  0  0  0  0  0  0  0  0
   -0.6270   -3.3885   -2.7460 H   0  0  0  0  0  0  0  0  0  0  0  0
   -1.6662   -1.9438   -2.9304 H   0  0  0  0  0  0  0  0  0  0  0  0
  1 18  1  0  0  0  0
  1 27  1  0  0  0  0
  2 17  1  6  0  0  0
  3  2  1  0  0  0  0
  3  4  1  0  0  0  0
  5  9  1  6  0  0  0
  5  3  1  0  0  0  0
  6  5  1  0  0  0  0
  6  7  2  0  0  0  0
  7  2  1  0  0  0  0
  8  7  1  0  0  0  0
  9 11  1  0  0  0  0
  9 10  1  0  0  0  0
 12  9  1  0  0  0  0
 13 15  1  0  0  0  0
 13  6  1  0  0  0  0
 14 13  1  0  0  0  0
 16 13  1  0  0  0  0
 17 18  2  0  0  0  0
 17 25  1  0  0  0  0
 18 19  1  0  0  0  0
 19 20  1  0  0  0  0
 19 21  2  0  0  0  0
 21 22  1  0  0  0  0
 23 21  1  0  0  0  0
 23 24  1  0  0  0  0
 25 23  2  0  0  0  0
 26 25  1  0  0  0  0
 27 28  1  0  0  0  0
 29 27  1  0  0  0  0
 30 27  1  0  0  0  0
 31  1  1  0  0  0  0
 32 31  1  0  0  0  0
 33 31  1  0  0  0  0
 34 31  1  0  0  0  0
M  END
