2
q = -1.0, confidence = 0.18

 18 17  0  0  0  0  0  0  0  0999 V2000
   -8.2382   -0.3912   -0.0005 Si  0  0  0  0  0  0  0  0  0  0  0  0
   -1.2258    0.3654    0.0006 C   0  0  0  0  0  1  0  0  0  0  0  0
   -2.5715    0.2475    0.0006 C   0  0  0  0  0  0  0  0  0  0  0  0
   -5.1603   -0.0481    0.0001 C   0  0  0  0  0  0  0  0  0  0  0  0
   -3.8216    0.1047    0.0005 C   0  0  0  0  0  0  0  0  0  0  0  0
   -6.4015   -0.1893   -0.0003 C   0  0  0  0  0  0  0  0  0  0  0  0
   -8.9972    1.0885    0.8975 C   0  0  0  0  0  0  0  0  0  0  0  0
   -8.6364    1.1458    1.9440 H   0  0  0  0  0  0  0  0  0  0  0  0
  -10.1034    1.0012    0.9163 H   0  0  0  0  0  0  0  0  0  0  0  0
   -8.7335    2.0384    0.3907 H   0  0  0  0  0  0  0  0  0  0  0  0
   -8.6580   -2.0014    0.8965 C   0  0  0  0  0  0  0  0  0  0  0  0
   -8.1945   -2.8714    0.3895 H   0  0  0  0  0  0  0  0  0  0  0  0
   -9.7568   -2.1563    0.9148 H   0  0  0  0  0  0  0  0  0  0  0  0
   -8.2942   -1.9794    1.9434 H   0  0  0  0  0  0  0  0  0  0  0  0
   -8.8305   -0.4564   -1.7943 C   0  0  0  0  0  0  0  0  0  0  0  0
   -8.5654    0.4749   -2.3339 H   0  0  0  0  0  0  0  0  0  0  0  0
   -9.9332   -0.5764   -1.8317 H   0  0  0  0  0  0  0  0  0  0  0  0
   -8.3711   -1.3089   -2.3338 H   0  0  0  0  0  0  0  0  0  0  0  0
  1  6  1  0  0  0  0
  1 11  1  0  0  0  0
  1  7  1  0  0  0  0
  2  3  1  0  0  0  0
  4  5  1  0  0  0  0
  5  3  3  0  0  0  0
  6  4  3  0  0  0  0
  7  9  1  0  0  0  0
  7  8  1  0  0  0  0
 10  7  1  0  0  0  0
 11 13  1  0  0  0  0
 11 14  1  0  0  0  0
 12 11  1  0  0  0  0
 15  1  1  0  0  0  0
 16 15  1  0  0  0  0
 17 15  1  0  0  0  0
 18 15  1  0  0  0  0
M  END
