1
q = 0.0, confidence = 0.998

 27 27  0  0  0  0  0  0  0  0999 V2000
    0.6839    0.1887   -1.6734 C   0  0  0  0  0  3  0  0  0  0  0  0
   -0.3733   -0.5079   -2.2965 C   0  0  0  0  0  0  0  0  0  0  0  0
   -0.9090   -1.6930   -1.6971 C   0  0  0  0  0  0  0  0  0  0  0  0
   -0.2785   -2.2350   -0.5593 C   0  0  0  0  0  0  0  0  0  0  0  0
    1.6935   -2.3299    1.2810 C   0  0  0  0  0  0  0  0  0  0  0  0
    2.5628    0.5461   -0.0591 C   0  0  0  0  0  0  0  0  0  0  0  0
    2.4748    0.7430    1.4628 C   0  0  0  0  0  0  0  0  0  0  0  0
    3.8380   -0.2085   -0.4768 C   0  0  0  0  0  0  0  0  0  0  0  0
    2.5926    1.9489   -0.6929 C   0  0  0  0  0  0  0  0  0  0  0  0
    0.9703   -1.5963    0.0726 B   0  0  0  0  0  0  0  0  0  0  0  0
    1.3727   -0.2821   -0.5406 N   0  0  0  0  0  0  0  0  0  0  0  0
    1.0421    1.1199   -2.1210 H   0  0  0  0  0  0  0  0  0  0  0  0
   -0.8268   -0.0635   -3.1923 H   0  0  0  0  0  0  0  0  0  0  0  0
   -1.7997   -2.1580   -2.1473 H   0  0  0  0  0  0  0  0  0  0  0  0
   -0.7170   -3.1389   -0.1098 H   0  0  0  0  0  0  0  0  0  0  0  0
    2.7903   -2.2040    1.3410 H   0  0  0  0  0  0  0  0  0  0  0  0
    1.4910   -3.4180    1.2125 H   0  0  0  0  0  0  0  0  0  0  0  0
    1.2732   -1.9992    2.2541 H   0  0  0  0  0  0  0  0  0  0  0  0
    1.5361    1.2707    1.7226 H   0  0  0  0  0  0  0  0  0  0  0  0
    3.3307    1.3595    1.8000 H   0  0  0  0  0  0  0  0  0  0  0  0
    2.5021   -0.2053    2.0219 H   0  0  0  0  0  0  0  0  0  0  0  0
    3.8970   -1.2116   -0.0168 H   0  0  0  0  0  0  0  0  0  0  0  0
    4.7345    0.3642   -0.1678 H   0  0  0  0  0  0  0  0  0  0  0  0
    3.8720   -0.3319   -1.5779 H   0  0  0  0  0  0  0  0  0  0  0  0
    2.8009    1.9326   -1.7807 H   0  0  0  0  0  0  0  0  0  0  0  0
    3.4191    2.5138   -0.2215 H   0  0  0  0  0  0  0  0  0  0  0  0
    1.6576    2.5116   -0.5046 H   0  0  0  0  0  0  0  0  0  0  0  0
  1 11  1  0  0  0  0
  2  3  2  0  0  0  0
  2  1  1  0  0  0  0
  3  4  1  0  0  0  0
  4 15  1  0  0  0  0
  4 10  2  0  0  0  0
  5 16  1  0  0  0  0
  5 18  1  0  0  0  0
  6  7  1  0  0  0  0
  7 19  1  0  0  0  0
  7 20  1  0  0  0  0
  7 21  1  0  0  0  0
  8 23  1  0  0  0  0
  8  6  1  0  0  0  0
  8 22  1  0  0  0  0
  9 27  1  0  0  0  0
  9 26  1  0  0  0  0
  9  6  1  0  0  0  0
 10  5  1  0  0  0  0
 11  6  1  0  0  0  0
 11 10  1  0  0  0  0
 12  1  1  0  0  0  0
 13  2  1  0  0  0  0
 14  3  1  0  0  0  0
 17  5  1  0  0  0  0
 24  8  1  0  0  0  0
 25  9  1  0  0  0  0
M  END
