22
q = -1.0, confidence = 0.0

 37 39  0  0  1  0  0  0  0  0999 V2000
   -1.8553   -1.6039    1.6057 Br  0  0  0  0  0  0  0  0  0  0  0  0
   -2.3389   -1.3458   -0.3208 C   0  0  1  0  0  0  0  0  0  0  0  0
   -2.2200   -2.3609   -0.7483 H   0  0  0  0  0  0  0  0  0  0  0  0
   -3.7373   -0.7967   -0.4383 C   0  0  0  0  0  0  0  0  0  0  0  0
   -4.9554   -1.3190   -0.0085 C   0  0  0  0  0  0  0  0  0  0  0  0
   -4.9990   -2.2761    0.5331 H   0  0  0  0  0  0  0  0  0  0  0  0
   -6.1297   -0.5807   -0.2628 C   0  0  0  0  0  0  0  0  0  0  0  0
   -7.1020   -0.9740    0.0695 H   0  0  0  0  0  0  0  0  0  0  0  0
   -6.0694    0.6556   -0.9299 C   0  0  0  0  0  0  0  0  0  0  0  0
   -6.9974    1.2180   -1.1139 H   0  0  0  0  0  0  0  0  0  0  0  0
   -4.8401    1.1849   -1.3621 C   0  0  0  0  0  0  0  0  0  0  0  0
   -4.7965    2.1526   -1.8840 H   0  0  0  0  0  0  0  0  0  0  0  0
   -3.6690    0.4521   -1.1124 C   0  0  0  0  0  0  0  0  0  0  0  0
   -2.2730    0.7197   -1.4433 C   0  0  0  0  0  0  0  0  0  0  0  0
   -1.9187    1.6187   -1.9640 H   0  0  0  0  0  0  0  0  0  0  0  0
   -1.4732   -0.3070   -1.0029 C   0  0  0  0  0  0  0  0  0  0  0  0
   -0.0383   -0.4232   -1.1783 C   0  0  0  0  0  0  0  0  0  0  0  0
    0.7945    0.4269   -2.0209 C   0  0  0  0  0  0  0  0  0  0  0  0
    0.4395    1.2867   -2.5997 H   0  0  0  0  0  0  0  0  0  0  0  0
    2.1343   -0.0317   -1.9589 C   0  0  0  0  0  0  0  0  0  0  0  0
    2.9794    0.4116   -2.4975 H   0  0  0  0  0  0  0  0  0  0  0  0
    2.2093   -1.1416   -1.0251 C   0  0  1  0  0  3  0  0  0  0  0  0
    0.8585   -1.3724   -0.5687 C   0  0  0  0  0  0  0  0  0  0  0  0
    0.5507   -2.1440    0.1468 H   0  0  0  0  0  0  0  0  0  0  0  0
    3.4057   -2.0453   -0.7654 C   0  0  0  0  0  0  0  0  0  0  0  0
    3.4352   -2.4996    0.7054 C   0  0  0  0  0  0  0  0  0  0  0  0
    4.2830   -3.1937    0.8734 H   0  0  0  0  0  0  0  0  0  0  0  0
    2.5075   -3.0327    0.9945 H   0  0  0  0  0  0  0  0  0  0  0  0
    3.5543   -1.6308    1.3826 H   0  0  0  0  0  0  0  0  0  0  0  0
    4.7229   -1.3254   -1.1033 C   0  0  0  0  0  0  0  0  0  0  0  0
    4.7763   -1.0427   -2.1738 H   0  0  0  0  0  0  0  0  0  0  0  0
    5.5823   -1.9945   -0.8978 H   0  0  0  0  0  0  0  0  0  0  0  0
    4.8537   -0.4092   -0.4946 H   0  0  0  0  0  0  0  0  0  0  0  0
    3.2467   -3.2795   -1.6865 C   0  0  0  0  0  0  0  0  0  0  0  0
    3.2067   -2.9803   -2.7534 H   0  0  0  0  0  0  0  0  0  0  0  0
    2.3170   -3.8365   -1.4532 H   0  0  0  0  0  0  0  0  0  0  0  0
    4.1039   -3.9710   -1.5554 H   0  0  0  0  0  0  0  0  0  0  0  0
  2  3  1  6  0  0  0
  2  1  1  0  0  0  0
  4  2  1  0  0  0  0
  4  5  1  0  0  0  0
  5  6  1  0  0  0  0
  7  5  2  0  0  0  0
  7  8  1  0  0  0  0
  9  7  1  0  0  0  0
 10  9  1  0  0  0  0
 11 13  1  0  0  0  0
 11  9  2  0  0  0  0
 12 11  1  0  0  0  0
 13  4  2  0  0  0  0
 14 13  1  0  0  0  0
 14 16  2  0  0  0  0
 15 14  1  0  0  0  0
 16  2  1  0  0  0  0
 17 16  1  0  0  0  0
 17 23  2  0  0  0  0
 18 20  2  0  0  0  0
 18 17  1  0  0  0  0
 19 18  1  0  0  0  0
 20 22  1  0  0  0  0
 21 20  1  0  0  0  0
 22 25  1  6  0  0  0
 22 23  1  0  0  0  0
 23 24  1  0  0  0  0
 25 26  1  0  0  0  0
 26 27  1  0  0  0  0
 26 28  1  0  0  0  0
 26 29  1  0  0  0  0
 30 32  1  0  0  0  0
 30 25  1  0  0  0  0
 30 33  1  0  0  0  0
 31 30  1  0  0  0  0
 34 37  1  0  0  0  0
 34 36  1  0  0  0  0
 34 25  1  0  0  0  0
 35 34  1  0  0  0  0
M  END
