4
q = -1.0, confidence = 0.0

 27 28  0  0  0  0  0  0  0  0999 V2000
    2.5398   -0.6225    0.0006 C   0  0  0  0  0  0  0  0  0  0  0  0
    2.1898   -1.3976   -1.1494 C   0  0  0  0  0  0  0  0  0  0  0  0
    2.3237   -1.0779   -2.1893 H   0  0  0  0  0  0  0  0  0  0  0  0
    1.5972   -2.6152   -0.7164 C   0  0  0  0  0  3  0  0  0  0  0  0
    1.2390   -3.4240   -1.3638 H   0  0  0  0  0  0  0  0  0  0  0  0
    1.5969   -2.6153    0.7170 C   0  0  0  0  0  0  0  0  0  0  0  0
    1.2385   -3.4241    1.3643 H   0  0  0  0  0  0  0  0  0  0  0  0
    2.1894   -1.3977    1.1504 C   0  0  0  0  0  0  0  0  0  0  0  0
    2.3230   -1.0781    2.1904 H   0  0  0  0  0  0  0  0  0  0  0  0
    3.1907    0.7296    0.0008 C   0  0  0  0  0  0  0  0  0  0  0  0
    2.8346    1.3048    0.8818 H   0  0  0  0  0  0  0  0  0  0  0  0
    2.8341    1.3052   -0.8799 H   0  0  0  0  0  0  0  0  0  0  0  0
    4.7072    0.6877    0.0004 C   0  0  0  0  0  0  0  0  0  0  0  0
    5.4311    1.8985    0.0008 C   0  0  0  0  0  0  0  0  0  0  0  0
    4.7337    3.0551    0.0014 F   0  0  0  0  0  0  0  0  0  0  0  0
    6.8214    1.9575    0.0005 C   0  0  0  0  0  0  0  0  0  0  0  0
    7.3404    2.9251    0.0008 H   0  0  0  0  0  0  0  0  0  0  0  0
    7.5592    0.7539   -0.0002 C   0  0  0  0  0  0  0  0  0  0  0  0
    8.9138    0.8906   -0.0005 O   0  0  0  0  0  0  0  0  0  0  0  0
    9.7034   -0.2825   -0.0012 C   0  0  0  0  0  0  0  0  0  0  0  0
   10.7582    0.0494   -0.0013 H   0  0  0  0  0  0  0  0  0  0  0  0
    9.5210   -0.9063   -0.9053 H   0  0  0  0  0  0  0  0  0  0  0  0
    9.5215   -0.9071    0.9026 H   0  0  0  0  0  0  0  0  0  0  0  0
    6.8750   -0.4778   -0.0006 C   0  0  0  0  0  0  0  0  0  0  0  0
    7.4204   -1.4300   -0.0011 H   0  0  0  0  0  0  0  0  0  0  0  0
    5.4689   -0.4905   -0.0003 C   0  0  0  0  0  0  0  0  0  0  0  0
    4.9450   -1.4582   -0.0005 H   0  0  0  0  0  0  0  0  0  0  0  0
  1 10  1  0  0  0  0
  1  8  1  0  0  0  0
  2  4  1  0  0  0  0
  2  1  2  0  0  0  0
  3  2  1  0  0  0  0
  4  6  1  0  0  0  0
  5  4  1  0  0  0  0
  6  8  2  0  0  0  0
  6  7  1  0  0  0  0
  8  9  1  0  0  0  0
 10 11  1  0  0  0  0
 12 10  1  0  0  0  0
 13 10  1  0  0  0  0
 13 14  1  0  0  0  0
 14 15  1  0  0  0  0
 16 14  2  0  0  0  0
 16 17  1  0  0  0  0
 18 16  1  0  0  0  0
 19 18  1  0  0  0  0
 20 19  1  0  0  0  0
 20 23  1  0  0  0  0
 21 20  1  0  0  0  0
 22 20  1  0  0  0  0
 24 26  1  0  0  0  0
 24 18  2  0  0  0  0
 25 24  1  0  0  0  0
 26 13  2  0  0  0  0
 27 26  1  0  0  0  0
M  END
