5
q = -1.0, confidence = 0.0

 31 30  0  0  0  0  0  0  0  0999 V2000
    2.8582   -3.1645   -1.3545 O   0  0  0  0  0  0  0  0  0  0  0  0
    3.1891   -3.1311    0.8984 O   0  0  0  0  0  0  0  0  0  0  0  0
    5.2366   -1.3752   -0.2399 O   0  0  0  0  0  0  0  0  0  0  0  0
    5.3503    0.8743    0.0104 O   0  0  0  0  0  0  0  0  0  0  0  0
    2.3473   -1.1785   -0.1254 C   0  0  0  0  0  3  0  0  0  0  0  0
    3.1903   -0.0928   -0.0733 C   0  0  0  0  0  0  0  0  0  0  0  0
    2.6804    1.2417    0.0082 C   0  0  0  0  0  0  0  0  0  0  0  0
    2.2107    2.3768    0.0632 C   0  0  0  0  0  0  0  0  0  0  0  0
    1.6616    3.7423    0.0948 C   0  0  0  0  0  0  0  0  0  0  0  0
    2.5897    4.6754   -0.7184 C   0  0  0  0  0  0  0  0  0  0  0  0
    2.6535    4.3434   -1.7733 H   0  0  0  0  0  0  0  0  0  0  0  0
    3.6145    4.6761   -0.2974 H   0  0  0  0  0  0  0  0  0  0  0  0
    2.2004    5.7147   -0.7003 H   0  0  0  0  0  0  0  0  0  0  0  0
    0.2448    3.7456   -0.5260 C   0  0  0  0  0  0  0  0  0  0  0  0
    0.2625    3.3729   -1.5690 H   0  0  0  0  0  0  0  0  0  0  0  0
   -0.1700    4.7749   -0.5284 H   0  0  0  0  0  0  0  0  0  0  0  0
   -0.4452    3.0985    0.0493 H   0  0  0  0  0  0  0  0  0  0  0  0
    1.5858    4.2368    1.5592 C   0  0  0  0  0  0  0  0  0  0  0  0
    2.5882    4.2338    2.0309 H   0  0  0  0  0  0  0  0  0  0  0  0
    0.9202    3.5874    2.1621 H   0  0  0  0  0  0  0  0  0  0  0  0
    1.1840    5.2708    1.5939 H   0  0  0  0  0  0  0  0  0  0  0  0
    2.8529   -2.5684   -0.2904 C   0  0  0  0  0  0  0  0  0  0  0  0
    3.7511   -4.4413    0.8034 C   0  0  0  0  0  0  0  0  0  0  0  0
    3.8584   -4.8097    1.8399 H   0  0  0  0  0  0  0  0  0  0  0  0
    4.7440   -4.3937    0.3103 H   0  0  0  0  0  0  0  0  0  0  0  0
    3.0992   -5.1178    0.2139 H   0  0  0  0  0  0  0  0  0  0  0  0
    4.6754   -0.2983   -0.1118 C   0  0  0  0  0  0  0  0  0  0  0  0
    6.7733    0.7572   -0.0245 C   0  0  0  0  0  0  0  0  0  0  0  0
    7.1691    1.7839    0.0758 H   0  0  0  0  0  0  0  0  0  0  0  0
    7.1117    0.3033   -0.9785 H   0  0  0  0  0  0  0  0  0  0  0  0
    7.1406    0.1189    0.8053 H   0  0  0  0  0  0  0  0  0  0  0  0
  1 22  2  0  0  0  0
  3 27  2  0  0  0  0
  5  6  2  0  0  0  0
  6  7  1  0  0  0  0
  7  8  3  0  0  0  0
  8  9  1  0  0  0  0
  9 18  1  0  0  0  0
 10 13  1  0  0  0  0
 10 12  1  0  0  0  0
 10  9  1  0  0  0  0
 11 10  1  0  0  0  0
 14 17  1  0  0  0  0
 14  9  1  0  0  0  0
 15 14  1  0  0  0  0
 16 14  1  0  0  0  0
 18 21  1  0  0  0  0
 18 19  1  0  0  0  0
 18 20  1  0  0  0  0
 22  5  1  0  0  0  0
 22  2  1  0  0  0  0
 23  2  1  0  0  0  0
 23 24  1  0  0  0  0
 25 23  1  0  0  0  0
 26 23  1  0  0  0  0
 27  6  1  0  0  0  0
 27  4  1  0  0  0  0
 28  4  1  0  0  0  0
 28 29  1  0  0  0  0
 28 31  1  0  0  0  0
 30 28  1  0  0  0  0
M  END
