24
q = -1.0, confidence = 0.138

 69 73  0  0  1  0  0  0  0  0999 V2000
    3.7507    1.2574   -0.9733 F   0  0  0  0  0  0  0  0  0  0  0  0
    5.4779   -0.0359   -2.5156 F   0  0  0  0  0  0  0  0  0  0  0  0
    5.0554   -2.6521   -3.2303 F   0  0  0  0  0  0  0  0  0  0  0  0
    2.8072   -3.9555   -2.3207 F   0  0  0  0  0  0  0  0  0  0  0  0
    1.0477   -2.6821   -0.7516 F   0  0  0  0  0  0  0  0  0  0  0  0
    0.7133    2.2432   -1.9424 F   0  0  0  0  0  0  0  0  0  0  0  0
    1.1267    4.8772   -1.6350 F   0  0  0  0  0  0  0  0  0  0  0  0
    2.1627    5.8569    0.7162 F   0  0  0  0  0  0  0  0  0  0  0  0
    2.7615    4.1236    2.7587 F   0  0  0  0  0  0  0  0  0  0  0  0
    2.3421    1.4952    2.4846 F   0  0  0  0  0  0  0  0  0  0  0  0
   -0.8251    1.0312    2.1657 F   0  0  0  0  0  0  0  0  0  0  0  0
   -1.5622   -0.2475    4.3615 F   0  0  0  0  0  0  0  0  0  0  0  0
   -0.2209   -2.5230    5.1842 F   0  0  0  0  0  0  0  0  0  0  0  0
    1.8752   -3.4536    3.6693 F   0  0  0  0  0  0  0  0  0  0  0  0
    2.6094   -2.2215    1.4474 F   0  0  0  0  0  0  0  0  0  0  0  0
    1.0939    0.1276    0.0934 B   0  0  0  0  0  0  0  0  0  0  0  0
   -1.4884    0.8738   -0.5776 C   0  0  0  0  0  0  0  0  0  0  0  0
   -1.6124    1.5378    0.2793 H   0  0  0  0  0  0  0  0  0  0  0  0
   -0.3254    0.0689   -0.7846 C   0  0  0  0  0  0  0  0  0  0  0  0
   -0.5843   -0.5883   -2.0447 C   0  0  0  0  0  0  0  0  0  0  0  0
    0.1265   -1.2510   -2.5515 H   0  0  0  0  0  0  0  0  0  0  0  0
   -1.8542   -0.1745   -2.5965 C   0  0  0  0  0  0  0  0  0  0  0  0
   -2.2690   -0.4943   -3.5574 H   0  0  0  0  0  0  0  0  0  0  0  0
   -2.4395    0.7265   -1.6586 C   0  0  1  0  0  3  0  0  0  0  0  0
   -3.8165    1.3833   -1.7473 C   0  0  0  0  0  0  0  0  0  0  0  0
   -4.6348    0.9275   -0.4436 C   0  0  0  0  0  0  0  0  0  0  0  0
   -4.0894   -0.4461   -0.0369 C   0  0  0  0  0  0  0  0  0  0  0  0
   -3.2372   -0.7071    1.1056 C   0  0  0  0  0  3  0  0  0  0  0  0
   -2.8904    0.0284    1.8362 H   0  0  0  0  0  0  0  0  0  0  0  0
   -2.9001   -2.0885    1.1229 C   0  0  0  0  0  0  0  0  0  0  0  0
   -2.2816   -2.5923    1.8738 H   0  0  0  0  0  0  0  0  0  0  0  0
   -3.5510   -2.7004    0.0043 C   0  0  0  0  0  0  0  0  0  0  0  0
   -3.5198   -3.7679   -0.2432 H   0  0  0  0  0  0  0  0  0  0  0  0
   -4.2834   -1.6952   -0.7163 C   0  0  0  0  0  0  0  0  0  0  0  0
   -4.8930   -1.8760   -1.6076 H   0  0  0  0  0  0  0  0  0  0  0  0
   -6.1506    0.8089   -0.7013 C   0  0  0  0  0  0  0  0  0  0  0  0
   -6.4051    0.0448   -1.4583 H   0  0  0  0  0  0  0  0  0  0  0  0
   -6.5664    1.7789   -1.0405 H   0  0  0  0  0  0  0  0  0  0  0  0
   -6.6701    0.5336    0.2383 H   0  0  0  0  0  0  0  0  0  0  0  0
   -4.4627    1.9099    0.7335 C   0  0  0  0  0  0  0  0  0  0  0  0
   -4.9518    1.5012    1.6396 H   0  0  0  0  0  0  0  0  0  0  0  0
   -4.9461    2.8781    0.5061 H   0  0  0  0  0  0  0  0  0  0  0  0
   -3.4079    2.1159    0.9903 H   0  0  0  0  0  0  0  0  0  0  0  0
   -4.5072    0.9296   -3.0466 C   0  0  0  0  0  0  0  0  0  0  0  0
   -3.8826    1.2017   -3.9197 H   0  0  0  0  0  0  0  0  0  0  0  0
   -5.4828    1.4334   -3.1764 H   0  0  0  0  0  0  0  0  0  0  0  0
   -4.6752   -0.1639   -3.0835 H   0  0  0  0  0  0  0  0  0  0  0  0
   -3.6231    2.9110   -1.8328 C   0  0  0  0  0  0  0  0  0  0  0  0
   -3.0300    3.3138   -0.9913 H   0  0  0  0  0  0  0  0  0  0  0  0
   -4.6008    3.4340   -1.8523 H   0  0  0  0  0  0  0  0  0  0  0  0
   -3.0843    3.1684   -2.7664 H   0  0  0  0  0  0  0  0  0  0  0  0
    2.2620   -0.6245   -0.8047 C   0  0  0  0  0  0  0  0  0  0  0  0
    3.4383   -0.0163   -1.2786 C   0  0  0  0  0  0  0  0  0  0  0  0
    4.3813   -0.6764   -2.0918 C   0  0  0  0  0  0  0  0  0  0  0  0
    4.1713   -2.0122   -2.4580 C   0  0  0  0  0  0  0  0  0  0  0  0
    3.0212   -2.6726   -1.9976 C   0  0  0  0  0  0  0  0  0  0  0  0
    2.1158   -1.9686   -1.1926 C   0  0  0  0  0  0  0  0  0  0  0  0
    1.4195    1.7356    0.2878 C   0  0  0  0  0  0  0  0  0  0  0  0
    1.1688    2.6647   -0.7361 C   0  0  0  0  0  0  0  0  0  0  0  0
    1.3964    4.0441   -0.6189 C   0  0  0  0  0  0  0  0  0  0  0  0
    1.9328    4.5464    0.5767 C   0  0  0  0  0  0  0  0  0  0  0  0
    2.2329    3.6577    1.6195 C   0  0  0  0  0  0  0  0  0  0  0  0
    1.9852    2.2839    1.4507 C   0  0  0  0  0  0  0  0  0  0  0  0
    0.8416   -0.5961    1.5710 C   0  0  0  0  0  0  0  0  0  0  0  0
   -0.1575   -0.1245    2.4399 C   0  0  0  0  0  0  0  0  0  0  0  0
   -0.5497   -0.7476    3.6318 C   0  0  0  0  0  0  0  0  0  0  0  0
    0.1261   -1.9028    4.0515 C   0  0  0  0  0  0  0  0  0  0  0  0
    1.1870   -2.3783    3.2684 C   0  0  0  0  0  0  0  0  0  0  0  0
    1.5353   -1.7133    2.0755 C   0  0  0  0  0  0  0  0  0  0  0  0
  2 54  1  0  0  0  0
  3 55  1  0  0  0  0
  4 56  1  0  0  0  0
  6 59  1  0  0  0  0
  7 60  1  0  0  0  0
 11 65  1  0  0  0  0
 15 69  1  0  0  0  0
 16 58  1  0  0  0  0
 16 64  1  0  0  0  0
 17 18  1  0  0  0  0
 19 17  2  0  0  0  0
 19 16  1  0  0  0  0
 20 19  1  0  0  0  0
 21 20  1  0  0  0  0
 22 20  2  0  0  0  0
 22 24  1  0  0  0  0
 23 22  1  0  0  0  0
 24 25  1  1  0  0  0
 24 17  1  0  0  0  0
 25 26  1  0  0  0  0
 26 27  1  0  0  0  0
 26 40  1  0  0  0  0
 27 28  1  0  0  0  0
 28 30  1  0  0  0  0
 28 29  1  0  0  0  0
 30 31  1  0  0  0  0
 32 30  2  0  0  0  0
 33 32  1  0  0  0  0
 34 27  2  0  0  0  0
 34 32  1  0  0  0  0
 35 34  1  0  0  0  0
 36 26  1  0  0  0  0
 36 39  1  0  0  0  0
 37 36  1  0  0  0  0
 38 36  1  0  0  0  0
 40 43  1  0  0  0  0
 40 41  1  0  0  0  0
 42 40  1  0  0  0  0
 44 25  1  0  0  0  0
 45 44  1  0  0  0  0
 46 44  1  0  0  0  0
 47 44  1  0  0  0  0
 48 25  1  0  0  0  0
 48 49  1  0  0  0  0
 50 48  1  0  0  0  0
 51 48  1  0  0  0  0
 52 16  1  0  0  0  0
 53  1  1  0  0  0  0
 53 52  2  0  0  0  0
 54 53  1  0  0  0  0
 55 54  2  0  0  0  0
 55 56  1  0  0  0  0
 56 57  2  0  0  0  0
 57 52  1  0  0  0  0
 57  5  1  0  0  0  0
 58 63  1  0  0  0  0
 59 60  1  0  0  0  0
 59 58  2  0  0  0  0
 60 61  2  0  0  0  0
 61  8  1  0  0  0  0
 61 62  1  0  0  0  0
 62  9  1  0  0  0  0
 63 62  2  0  0  0  0
 63 10  1  0  0  0  0
 64 69  2  0  0  0  0
 64 65  1  0  0  0  0
 65 66  2  0  0  0  0
 66 67  1  0  0  0  0
 66 12  1  0  0  0  0
 67 13  1  0  0  0  0
 68 14  1  0  0  0  0
 68 67  2  0  0  0  0
 69 68  1  0  0  0  0
M  END
