10
q = 0.0, confidence = 0.994

 27 27  0  0  1  0  0  0  0  0999 V2000
    1.0864   -2.1532    1.5591 O   0  0  0  0  0  0  0  0  0  0  0  0
    2.7375   -1.5944   -0.3888 O   0  0  0  0  0  0  0  0  0  0  0  0
   -1.4139   -0.8852   -0.9493 C   0  0  2  0  0  3  0  0  0  0  0  0
   -0.8861   -1.4499    0.2761 C   0  0  0  0  0  0  0  0  0  0  0  0
   -1.5627   -1.6465    1.1169 H   0  0  0  0  0  0  0  0  0  0  0  0
    0.5104   -1.7030    0.4286 C   0  0  0  0  0  0  0  0  0  0  0  0
    1.4374   -1.3858   -0.6515 C   0  0  0  0  0  0  0  0  0  0  0  0
    0.9095   -0.8257   -1.8484 C   0  0  0  0  0  0  0  0  0  0  0  0
    1.5930   -0.4808   -2.6352 H   0  0  0  0  0  0  0  0  0  0  0  0
   -0.4975   -0.5830   -2.0075 C   0  0  0  0  0  3  0  0  0  0  0  0
   -0.8603   -0.0909   -2.9203 H   0  0  0  0  0  0  0  0  0  0  0  0
    3.7014   -1.0691   -1.3095 C   0  0  0  0  0  0  0  0  0  0  0  0
    3.6248   -1.5681   -2.2982 H   0  0  0  0  0  0  0  0  0  0  0  0
    4.6905   -1.2869   -0.8702 H   0  0  0  0  0  0  0  0  0  0  0  0
    3.5727    0.0285   -1.4281 H   0  0  0  0  0  0  0  0  0  0  0  0
    0.2555   -2.5302    2.6579 C   0  0  0  0  0  0  0  0  0  0  0  0
   -0.3086   -1.6605    3.0606 H   0  0  0  0  0  0  0  0  0  0  0  0
    0.9372   -2.9136    3.4375 H   0  0  0  0  0  0  0  0  0  0  0  0
   -0.4552   -3.3313    2.3671 H   0  0  0  0  0  0  0  0  0  0  0  0
   -2.8279   -0.5107   -1.0921 C   0  0  0  0  0  0  0  0  0  0  0  0
   -3.0608    0.1038   -1.9790 H   0  0  0  0  0  0  0  0  0  0  0  0
   -3.8395   -0.8791   -0.2686 C   0  0  0  0  0  0  0  0  0  0  0  0
   -3.6174   -1.5291    0.5981 H   0  0  0  0  0  0  0  0  0  0  0  0
   -5.2750   -0.5194   -0.4625 C   0  0  0  0  0  0  0  0  0  0  0  0
   -5.4295    0.1397   -1.3383 H   0  0  0  0  0  0  0  0  0  0  0  0
   -5.6891   -0.0173    0.4380 H   0  0  0  0  0  0  0  0  0  0  0  0
   -5.8894   -1.4350   -0.6026 H   0  0  0  0  0  0  0  0  0  0  0  0
  1 16  1  0  0  0  0
  3 20  1  1  0  0  0
  3  4  1  0  0  0  0
  4  6  2  0  0  0  0
  4  5  1  0  0  0  0
  6  1  1  0  0  0  0
  7  2  1  0  0  0  0
  7  6  1  0  0  0  0
  8  7  2  0  0  0  0
  9  8  1  0  0  0  0
 10  8  1  0  0  0  0
 10  3  1  0  0  0  0
 11 10  1  0  0  0  0
 12 14  1  0  0  0  0
 12  2  1  0  0  0  0
 13 12  1  0  0  0  0
 15 12  1  0  0  0  0
 16 17  1  0  0  0  0
 16 18  1  0  0  0  0
 19 16  1  0  0  0  0
 20 22  2  0  0  0  0
 21 20  1  0  0  0  0
 22 23  1  0  0  0  0
 24 22  1  0  0  0  0
 24 26  1  0  0  0  0
 25 24  1  0  0  0  0
 27 24  1  0  0  0  0
M  END
