43
q = -1.0, confidence = 0.0

 46 46  0  0  0  0  0  0  0  0999 V2000
   -2.7157   -0.7062    0.5499 B   0  0  0  0  0  0  0  0  0  0  0  0
    2.7160   -0.7058    0.5500 B   0  0  0  0  0  0  0  0  0  0  0  0
   -3.6023   -1.6236   -0.1347 N   0  0  0  0  0  0  0  0  0  0  0  0
   -5.0058   -1.3424   -0.3663 C   0  0  0  0  0  0  0  0  0  0  0  0
   -5.2477   -1.4708   -1.4474 H   0  0  0  0  0  0  0  0  0  0  0  0
   -5.2447   -0.2980   -0.0956 H   0  0  0  0  0  0  0  0  0  0  0  0
   -5.6934   -2.0180    0.1983 H   0  0  0  0  0  0  0  0  0  0  0  0
   -3.1953   -2.9101   -0.6628 C   0  0  0  0  0  0  0  0  0  0  0  0
   -2.1334   -3.1151   -0.4352 H   0  0  0  0  0  0  0  0  0  0  0  0
   -3.3382   -2.9808   -1.7683 H   0  0  0  0  0  0  0  0  0  0  0  0
   -3.7970   -3.7348   -0.2113 H   0  0  0  0  0  0  0  0  0  0  0  0
   -3.2149    0.1091    1.6226 N   0  0  0  0  0  0  0  0  0  0  0  0
   -2.6047    1.3448    2.0694 C   0  0  0  0  0  0  0  0  0  0  0  0
   -2.2030    1.2629    3.1074 H   0  0  0  0  0  0  0  0  0  0  0  0
   -3.3444    2.1785    2.0740 H   0  0  0  0  0  0  0  0  0  0  0  0
   -1.7828    1.6327    1.3966 H   0  0  0  0  0  0  0  0  0  0  0  0
   -4.3756   -0.2541    2.4147 C   0  0  0  0  0  0  0  0  0  0  0  0
   -5.2520    0.4146    2.2402 H   0  0  0  0  0  0  0  0  0  0  0  0
   -4.1308   -0.1851    3.4996 H   0  0  0  0  0  0  0  0  0  0  0  0
   -4.6829   -1.2944    2.2062 H   0  0  0  0  0  0  0  0  0  0  0  0
    3.6030   -1.6222   -0.1357 N   0  0  0  0  0  0  0  0  0  0  0  0
    5.0063   -1.3399   -0.3673 C   0  0  0  0  0  0  0  0  0  0  0  0
    5.2447   -0.2956   -0.0955 H   0  0  0  0  0  0  0  0  0  0  0  0
    5.2481   -1.4670   -1.4486 H   0  0  0  0  0  0  0  0  0  0  0  0
    5.6945   -2.0157    0.1965 H   0  0  0  0  0  0  0  0  0  0  0  0
    3.1968   -2.9084   -0.6648 C   0  0  0  0  0  0  0  0  0  0  0  0
    2.1352   -3.1145   -0.4369 H   0  0  0  0  0  0  0  0  0  0  0  0
    3.7993   -3.7331   -0.2142 H   0  0  0  0  0  0  0  0  0  0  0  0
    3.3392   -2.9781   -1.7704 H   0  0  0  0  0  0  0  0  0  0  0  0
    3.2150    0.1082    1.6237 N   0  0  0  0  0  0  0  0  0  0  0  0
    2.6045    1.3432    2.0722 C   0  0  0  0  0  0  0  0  0  0  0  0
    1.7822    1.6316    1.4001 H   0  0  0  0  0  0  0  0  0  0  0  0
    3.3439    2.1772    2.0773 H   0  0  0  0  0  0  0  0  0  0  0  0
    2.2034    1.2599    3.1102 H   0  0  0  0  0  0  0  0  0  0  0  0
    4.3759   -0.2557    2.4152 C   0  0  0  0  0  0  0  0  0  0  0  0
    4.6834   -1.2956    2.2055 H   0  0  0  0  0  0  0  0  0  0  0  0
    4.1312   -0.1880    3.5003 H   0  0  0  0  0  0  0  0  0  0  0  0
    5.2521    0.4135    2.2415 H   0  0  0  0  0  0  0  0  0  0  0  0
   -1.1922   -0.6820    0.1014 C   0  0  0  0  0  0  0  0  0  0  0  0
    0.0001   -0.4122    0.8662 C   0  0  0  0  0  0  0  0  0  0  0  0
   -0.0001   -0.0832    1.9133 H   0  0  0  0  0  0  0  0  0  0  0  0
    1.1926   -0.6817    0.1015 C   0  0  0  0  0  0  0  0  0  0  0  0
    0.7110   -1.0784   -1.2092 C   0  0  0  0  0  3  0  0  0  0  0  0
    1.3482   -1.3357   -2.0636 H   0  0  0  0  0  0  0  0  0  0  0  0
   -0.7105   -1.0787   -1.2093 C   0  0  0  0  0  0  0  0  0  0  0  0
   -1.3475   -1.3363   -2.0637 H   0  0  0  0  0  0  0  0  0  0  0  0
  1 12  1  0  0  0  0
  2 30  1  0  0  0  0
  3  1  1  0  0  0  0
  4  3  1  0  0  0  0
  4  6  1  0  0  0  0
  4  7  1  0  0  0  0
  5  4  1  0  0  0  0
  8  9  1  0  0  0  0
  8 11  1  0  0  0  0
  8  3  1  0  0  0  0
 10  8  1  0  0  0  0
 12 13  1  0  0  0  0
 12 17  1  0  0  0  0
 13 15  1  0  0  0  0
 13 14  1  0  0  0  0
 16 13  1  0  0  0  0
 17 19  1  0  0  0  0
 18 17  1  0  0  0  0
 20 17  1  0  0  0  0
 21  2  1  0  0  0  0
 22 21  1  0  0  0  0
 22 23  1  0  0  0  0
 22 25  1  0  0  0  0
 24 22  1  0  0  0  0
 26 27  1  0  0  0  0
 26 28  1  0  0  0  0
 26 21  1  0  0  0  0
 29 26  1  0  0  0  0
 30 31  1  0  0  0  0
 30 35  1  0  0  0  0
 31 33  1  0  0  0  0
 31 34  1  0  0  0  0
 32 31  1  0  0  0  0
 35 37  1  0  0  0  0
 36 35  1  0  0  0  0
 38 35  1  0  0  0  0
 39  1  1  0  0  0  0
 39 40  1  0  0  0  0
 40 41  1  0  0  0  0
 42  2  1  0  0  0  0
 42 40  2  0  0  0  0
 43 42  1  0  0  0  0
 44 43  1  0  0  0  0
 45 43  1  0  0  0  0
 45 39  2  0  0  0  0
 46 45  1  0  0  0  0
M  END
