5
q = 0.0, confidence = 0.88

 37 37  0  0  0  0  0  0  0  0999 V2000
    0.6135    1.8779    0.1549 S   0  0  0  0  0  0  0  0  0  0  0  0
    5.0120   -2.8463    0.0582 Si  0  0  0  0  0  0  0  0  0  0  0  0
    0.4753   -2.3763   -0.0143 S   0  0  0  0  0  0  0  0  0  0  0  0
   -0.3625   -0.9045    0.0808 C   0  0  0  0  0  3  0  0  0  0  0  0
   -0.3037    0.4527    0.1511 C   0  0  0  0  0  3  0  0  0  0  0  0
    3.2182    2.7031    0.0205 C   0  0  0  0  0  0  0  0  0  0  0  0
    3.1292   -3.2341    0.0108 C   0  0  0  0  0  0  0  0  0  0  0  0
    2.9218   -3.8287   -0.9054 H   0  0  0  0  0  0  0  0  0  0  0  0
    2.8870   -3.8858    0.8781 H   0  0  0  0  0  0  0  0  0  0  0  0
    2.2863   -1.9712    0.0352 C   0  0  0  0  0  0  0  0  0  0  0  0
    2.4918   -1.3217   -0.8382 H   0  0  0  0  0  0  0  0  0  0  0  0
    2.4517   -1.3823    0.9590 H   0  0  0  0  0  0  0  0  0  0  0  0
    3.5088    3.3608   -1.1927 C   0  0  0  0  0  0  0  0  0  0  0  0
    3.1720    2.9199   -2.1445 H   0  0  0  0  0  0  0  0  0  0  0  0
    2.4241    1.4299    0.0254 C   0  0  0  0  0  0  0  0  0  0  0  0
    2.6682    0.7908    0.8949 H   0  0  0  0  0  0  0  0  0  0  0  0
    2.5567    0.8509   -0.9085 H   0  0  0  0  0  0  0  0  0  0  0  0
    4.2297    4.5630   -1.1946 C   0  0  0  0  0  0  0  0  0  0  0  0
    4.4597    5.0624   -2.1476 H   0  0  0  0  0  0  0  0  0  0  0  0
    5.4497   -1.7944   -1.4533 C   0  0  0  0  0  0  0  0  0  0  0  0
    4.9452   -0.8060   -1.4311 H   0  0  0  0  0  0  0  0  0  0  0  0
    5.1701   -2.3033   -2.3987 H   0  0  0  0  0  0  0  0  0  0  0  0
    6.5418   -1.6021   -1.4884 H   0  0  0  0  0  0  0  0  0  0  0  0
    4.6618    5.1256    0.0173 C   0  0  0  0  0  0  0  0  0  0  0  0
    5.2302    6.0677    0.0156 H   0  0  0  0  0  0  0  0  0  0  0  0
    5.3893   -1.8776    1.6398 C   0  0  0  0  0  0  0  0  0  0  0  0
    6.4794   -1.6919    1.7296 H   0  0  0  0  0  0  0  0  0  0  0  0
    5.0698   -2.4340    2.5448 H   0  0  0  0  0  0  0  0  0  0  0  0
    4.8881   -0.8872    1.6492 H   0  0  0  0  0  0  0  0  0  0  0  0
    4.3714    4.4817    1.2309 C   0  0  0  0  0  0  0  0  0  0  0  0
    4.7122    4.9174    2.1820 H   0  0  0  0  0  0  0  0  0  0  0  0
    3.6508    3.2794    1.2329 C   0  0  0  0  0  0  0  0  0  0  0  0
    3.4246    2.7750    2.1858 H   0  0  0  0  0  0  0  0  0  0  0  0
    5.9446   -4.4849    0.0325 C   0  0  0  0  0  0  0  0  0  0  0  0
    5.7166   -5.0648   -0.8851 H   0  0  0  0  0  0  0  0  0  0  0  0
    5.6808   -5.1128    0.9080 H   0  0  0  0  0  0  0  0  0  0  0  0
    7.0402   -4.3132    0.0590 H   0  0  0  0  0  0  0  0  0  0  0  0
  2 26  1  0  0  0  0
  3 10  1  0  0  0  0
  3  4  1  0  0  0  0
  4  5  2  0  0  0  0
  5  1  1  0  0  0  0
  6 15  1  0  0  0  0
  6 32  1  0  0  0  0
  7 10  1  0  0  0  0
  7  2  1  0  0  0  0
  7  9  1  0  0  0  0
  8  7  1  0  0  0  0
 10 12  1  0  0  0  0
 11 10  1  0  0  0  0
 13  6  2  0  0  0  0
 14 13  1  0  0  0  0
 15  1  1  0  0  0  0
 15 16  1  0  0  0  0
 17 15  1  0  0  0  0
 18 13  1  0  0  0  0
 18 24  2  0  0  0  0
 19 18  1  0  0  0  0
 20 21  1  0  0  0  0
 20  2  1  0  0  0  0
 22 20  1  0  0  0  0
 23 20  1  0  0  0  0
 24 30  1  0  0  0  0
 25 24  1  0  0  0  0
 26 29  1  0  0  0  0
 26 27  1  0  0  0  0
 26 28  1  0  0  0  0
 30 32  2  0  0  0  0
 30 31  1  0  0  0  0
 32 33  1  0  0  0  0
 34  2  1  0  0  0  0
 34 37  1  0  0  0  0
 34 36  1  0  0  0  0
 35 34  1  0  0  0  0
M  END
