2
q = -1.0, confidence = 0.0

 33 36  0  0  1  0  0  0  0  0999 V2000
    0.5680   -1.7043    0.8268 N   0  0  0  0  0  0  0  0  0  0  0  0
    0.6705   -0.5415   -0.0370 C   0  0  2  0  0  3  0  0  0  0  0  0
    1.2334   -1.0441   -1.3691 C   0  0  2  0  0  0  0  0  0  0  0  0
    0.9941   -0.5899   -2.3395 H   0  0  0  0  0  0  0  0  0  0  0  0
    0.8610   -2.7738    0.1494 C   0  0  0  0  0  0  0  0  0  0  0  0
    0.8470   -3.7754    0.6162 H   0  0  0  0  0  0  0  0  0  0  0  0
    1.2648   -2.5251   -1.2473 C   0  0  0  0  0  0  0  0  0  0  0  0
    1.5548   -3.4653   -2.1801 C   0  0  0  0  0  0  0  0  0  0  0  0
    1.8583   -3.1909   -3.2016 H   0  0  0  0  0  0  0  0  0  0  0  0
    1.5016   -4.5375   -1.9346 H   0  0  0  0  0  0  0  0  0  0  0  0
    2.1577   -0.2567   -0.4099 C   0  0  0  0  0  0  0  0  0  0  0  0
    2.5667    1.1433   -0.7894 C   0  0  0  0  0  0  0  0  0  0  0  0
    3.4143    1.8684    0.0819 C   0  0  0  0  0  0  0  0  0  0  0  0
    3.7942    1.3792    0.9905 H   0  0  0  0  0  0  0  0  0  0  0  0
    3.7777    3.1937   -0.1907 C   0  0  0  0  0  0  0  0  0  0  0  0
    4.4325    3.7323    0.5117 H   0  0  0  0  0  0  0  0  0  0  0  0
    3.3142    3.8310   -1.3537 C   0  0  0  0  0  0  0  0  0  0  0  0
    3.5970    4.8723   -1.5703 H   0  0  0  0  0  0  0  0  0  0  0  0
    2.4988    3.1160   -2.2430 C   0  0  0  0  0  0  0  0  0  0  0  0
    2.1330    3.5920   -3.1655 H   0  0  0  0  0  0  0  0  0  0  0  0
    2.1384    1.7887   -1.9667 C   0  0  0  0  0  0  0  0  0  0  0  0
    1.4993    1.2613   -2.6859 H   0  0  0  0  0  0  0  0  0  0  0  0
    3.2888   -1.0131    0.2493 C   0  0  0  0  0  0  0  0  0  0  0  0
    3.3622   -1.2363    1.6386 C   0  0  0  0  0  0  0  0  0  0  0  0
    2.5175   -0.9353    2.2742 H   0  0  0  0  0  0  0  0  0  0  0  0
    4.4767   -1.8747    2.2053 C   0  0  0  0  0  0  0  0  0  0  0  0
    4.5152   -2.0403    3.2931 H   0  0  0  0  0  0  0  0  0  0  0  0
    5.5346   -2.3057    1.3901 C   0  0  0  0  0  0  0  0  0  0  0  0
    6.4080   -2.8072    1.8344 H   0  0  0  0  0  0  0  0  0  0  0  0
    5.4689   -2.0966    0.0027 C   0  0  0  0  0  0  0  0  0  0  0  0
    6.2918   -2.4343   -0.6461 H   0  0  0  0  0  0  0  0  0  0  0  0
    4.3556   -1.4568   -0.5591 C   0  0  0  0  0  0  0  0  0  0  0  0
    4.3047   -1.2878   -1.6459 H   0  0  0  0  0  0  0  0  0  0  0  0
  2  1  1  1  0  0  0
  3  4  1  6  0  0  0
  3  7  1  0  0  0  0
  3 11  1  0  0  0  0
  3  2  1  0  0  0  0
  5  6  1  0  0  0  0
  5  1  2  0  0  0  0
  7  5  1  0  0  0  0
  8 10  1  0  0  0  0
  8  7  2  0  0  0  0
  9  8  1  0  0  0  0
 11  2  1  0  0  0  0
 11 23  1  0  0  0  0
 12 11  1  0  0  0  0
 12 13  1  0  0  0  0
 13 14  1  0  0  0  0
 15 13  2  0  0  0  0
 15 16  1  0  0  0  0
 17 15  1  0  0  0  0
 18 17  1  0  0  0  0
 19 21  1  0  0  0  0
 19 17  2  0  0  0  0
 20 19  1  0  0  0  0
 21 12  2  0  0  0  0
 22 21  1  0  0  0  0
 23 24  1  0  0  0  0
 24 26  2  0  0  0  0
 24 25  1  0  0  0  0
 26 27  1  0  0  0  0
 28 29  1  0  0  0  0
 28 26  1  0  0  0  0
 30 28  2  0  0  0  0
 31 30  1  0  0  0  0
 32 30  1  0  0  0  0
 32 23  2  0  0  0  0
 33 32  1  0  0  0  0
M  END
