10
q = 0.0, confidence = 0.972

 47 47  0  0  1  0  0  0  0  0999 V2000
    1.2244   -1.9571    2.0684 O   0  0  0  0  0  0  0  0  0  0  0  0
   -1.0203   -1.9295    1.7455 O   0  0  0  0  0  0  0  0  0  0  0  0
    3.7460   -0.1435    0.7812 O   0  0  0  0  0  0  0  0  0  0  0  0
    2.5347    0.9202    2.3756 O   0  0  0  0  0  0  0  0  0  0  0  0
    1.6793    2.8797   -0.0032 O   0  0  0  0  0  0  0  0  0  0  0  0
   -2.1485   -0.0712   -1.4336 O   0  0  0  0  0  0  0  0  0  0  0  0
   -3.1679   -0.2832    0.5797 O   0  0  0  0  0  0  0  0  0  0  0  0
   -0.4425    1.8941    0.1175 N   0  0  0  0  0  0  0  0  0  0  0  0
    0.2416   -0.3102    0.6065 C   0  0  2  0  0  3  0  0  0  0  0  0
    1.4217    0.4841    0.3746 C   0  0  1  0  0  3  0  0  0  0  0  0
    0.9554    1.9012    0.1304 C   0  0  0  0  0  0  0  0  0  0  0  0
   -0.9774    0.6260    0.5984 C   0  0  2  0  0  0  0  0  0  0  0  0
    0.2383   -1.4645    1.5413 C   0  0  0  0  0  0  0  0  0  0  0  0
   -1.1274   -3.0491    2.6318 C   0  0  0  0  0  0  0  0  0  0  0  0
    2.7042    0.3557    1.1608 C   0  0  0  0  0  0  0  0  0  0  0  0
    3.6775    0.8607    3.2394 C   0  0  0  0  0  0  0  0  0  0  0  0
   -1.2160    3.1784    0.1282 C   0  0  0  0  0  0  0  0  0  0  0  0
   -0.8692    3.9428    1.4217 C   0  0  0  0  0  0  0  0  0  0  0  0
   -0.8424    4.0025   -1.1184 C   0  0  0  0  0  0  0  0  0  0  0  0
   -2.7268    2.9030    0.0878 C   0  0  0  0  0  0  0  0  0  0  0  0
   -2.1486    0.0634   -0.2219 C   0  0  0  0  0  0  0  0  0  0  0  0
   -4.3153   -0.9336   -0.0517 C   0  0  0  0  0  0  0  0  0  0  0  0
   -5.5205   -0.5922    0.8086 C   0  0  0  0  0  0  0  0  0  0  0  0
   -4.0361   -2.4269   -0.1717 C   0  0  0  0  0  0  0  0  0  0  0  0
   -1.3369    0.7160    1.6492 H   0  0  0  0  0  0  0  0  0  0  0  0
   -2.2028   -3.2950    2.6844 H   0  0  0  0  0  0  0  0  0  0  0  0
   -0.7387   -2.7944    3.6379 H   0  0  0  0  0  0  0  0  0  0  0  0
   -0.5500   -3.9127    2.2448 H   0  0  0  0  0  0  0  0  0  0  0  0
    3.9355   -0.1943    3.4611 H   0  0  0  0  0  0  0  0  0  0  0  0
    3.3899    1.3922    4.1638 H   0  0  0  0  0  0  0  0  0  0  0  0
    4.5529    1.3478    2.7660 H   0  0  0  0  0  0  0  0  0  0  0  0
   -1.4221    4.9026    1.4605 H   0  0  0  0  0  0  0  0  0  0  0  0
    0.2146    4.1588    1.4650 H   0  0  0  0  0  0  0  0  0  0  0  0
   -1.1510    3.3490    2.3157 H   0  0  0  0  0  0  0  0  0  0  0  0
   -1.4210    4.9477   -1.1204 H   0  0  0  0  0  0  0  0  0  0  0  0
   -1.0877    3.4402   -2.0402 H   0  0  0  0  0  0  0  0  0  0  0  0
    0.2353    4.2426   -1.1248 H   0  0  0  0  0  0  0  0  0  0  0  0
   -3.0224    2.3927   -0.8489 H   0  0  0  0  0  0  0  0  0  0  0  0
   -3.2557    3.8752    0.1192 H   0  0  0  0  0  0  0  0  0  0  0  0
   -3.0792    2.3077    0.9520 H   0  0  0  0  0  0  0  0  0  0  0  0
   -4.4165   -0.4962   -1.0669 H   0  0  0  0  0  0  0  0  0  0  0  0
   -6.4362   -1.0395    0.3742 H   0  0  0  0  0  0  0  0  0  0  0  0
   -5.6657    0.5040    0.8705 H   0  0  0  0  0  0  0  0  0  0  0  0
   -5.3948   -0.9872    1.8370 H   0  0  0  0  0  0  0  0  0  0  0  0
   -3.1356   -2.6126   -0.7878 H   0  0  0  0  0  0  0  0  0  0  0  0
   -4.8940   -2.9343   -0.6562 H   0  0  0  0  0  0  0  0  0  0  0  0
   -3.8848   -2.8781    0.8295 H   0  0  0  0  0  0  0  0  0  0  0  0
  2 14  1  0  0  0  0
  3 15  2  0  0  0  0
  4 16  1  0  0  0  0
  5 11  2  0  0  0  0
  6 21  2  0  0  0  0
  8 17  1  0  0  0  0
  8 11  1  0  0  0  0
  8 12  1  0  0  0  0
  9 13  1  1  0  0  0
 10  9  1  0  0  0  0
 10 15  1  1  0  0  0
 11 10  1  0  0  0  0
 12  9  1  0  0  0  0
 12 25  1  1  0  0  0
 13  2  1  0  0  0  0
 13  1  2  0  0  0  0
 14 26  1  0  0  0  0
 14 27  1  0  0  0  0
 15  4  1  0  0  0  0
 16 29  1  0  0  0  0
 16 30  1  0  0  0  0
 17 18  1  0  0  0  0
 18 32  1  0  0  0  0
 18 33  1  0  0  0  0
 18 34  1  0  0  0  0
 19 17  1  0  0  0  0
 20 39  1  0  0  0  0
 20 17  1  0  0  0  0
 20 40  1  0  0  0  0
 21  7  1  0  0  0  0
 21 12  1  0  0  0  0
 22  7  1  0  0  0  0
 22 23  1  0  0  0  0
 23 43  1  0  0  0  0
 23 44  1  0  0  0  0
 24 22  1  0  0  0  0
 24 47  1  0  0  0  0
 28 14  1  0  0  0  0
 31 16  1  0  0  0  0
 35 19  1  0  0  0  0
 36 19  1  0  0  0  0
 37 19  1  0  0  0  0
 38 20  1  0  0  0  0
 41 22  1  0  0  0  0
 42 23  1  0  0  0  0
 45 24  1  0  0  0  0
 46 24  1  0  0  0  0
M  END
