7
q = -1.0, confidence = 0.012

 21 20  0  0  0  0  0  0  0  0999 V2000
   -3.0422   -0.1554   -1.4189 O   0  0  0  0  0  0  0  0  0  0  0  0
   -3.6866   -0.5114    0.7348 O   0  0  0  0  0  0  0  0  0  0  0  0
   -0.7746    1.1772   -0.5911 N   0  0  0  0  0  0  0  0  0  0  0  0
   -0.3439    2.5905   -0.4508 C   0  0  0  0  0  0  0  0  0  0  0  0
    0.8643    2.8337   -1.3499 C   0  0  0  0  0  0  0  0  0  0  0  0
   -1.5130    3.5291   -0.7571 C   0  0  0  0  0  0  0  0  0  0  0  0
   -1.6345    0.5714    0.3694 C   0  0  0  0  0  3  0  0  0  0  0  0
   -2.8446   -0.0484   -0.2122 C   0  0  0  0  0  0  0  0  0  0  0  0
   -4.8430   -1.1995    0.2425 C   0  0  0  0  0  0  0  0  0  0  0  0
   -0.0401    2.7044    0.6083 H   0  0  0  0  0  0  0  0  0  0  0  0
   -1.1371    0.9763   -1.5402 H   0  0  0  0  0  0  0  0  0  0  0  0
    1.2210    3.8765   -1.2454 H   0  0  0  0  0  0  0  0  0  0  0  0
    0.6086    2.6678   -2.4183 H   0  0  0  0  0  0  0  0  0  0  0  0
    1.6959    2.1540   -1.0845 H   0  0  0  0  0  0  0  0  0  0  0  0
   -1.8525    3.4206   -1.8089 H   0  0  0  0  0  0  0  0  0  0  0  0
   -1.2105    4.5839   -0.6041 H   0  0  0  0  0  0  0  0  0  0  0  0
   -2.3765    3.3230   -0.0937 H   0  0  0  0  0  0  0  0  0  0  0  0
   -1.7297    1.0865    1.3376 H   0  0  0  0  0  0  0  0  0  0  0  0
   -5.4602   -0.5325   -0.3925 H   0  0  0  0  0  0  0  0  0  0  0  0
   -5.4113   -1.5183    1.1339 H   0  0  0  0  0  0  0  0  0  0  0  0
   -4.5480   -2.0798   -0.3638 H   0  0  0  0  0  0  0  0  0  0  0  0
  1  8  2  0  0  0  0
  3  4  1  0  0  0  0
  3  7  1  0  0  0  0
  4 10  1  0  0  0  0
  5 12  1  0  0  0  0
  5 14  1  0  0  0  0
  5  4  1  0  0  0  0
  6 16  1  0  0  0  0
  6  4  1  0  0  0  0
  6 17  1  0  0  0  0
  7 18  1  0  0  0  0
  8  7  1  0  0  0  0
  8  2  1  0  0  0  0
  9  2  1  0  0  0  0
  9 20  1  0  0  0  0
 11  3  1  0  0  0  0
 13  5  1  0  0  0  0
 15  6  1  0  0  0  0
 19  9  1  0  0  0  0
 21  9  1  0  0  0  0
M  END
