3
q = -1.0, confidence = 0.014

 23 22  0  0  0  0  0  0  0  0999 V2000
    1.4119   -0.2826    1.4780 O   0  0  0  0  0  0  0  0  0  0  0  0
    2.7622    0.8171   -0.0612 N   0  0  0  0  0  0  0  0  0  0  0  0
    1.7767    0.0005    0.3012 C   0  0  0  0  0  3  0  0  0  0  0  0
    3.0893    0.9942   -1.4941 C   0  0  0  0  0  0  0  0  0  0  0  0
    3.1809    2.4762   -1.8706 C   0  0  0  0  0  0  0  0  0  0  0  0
    4.3500    0.2212   -1.8942 C   0  0  0  0  0  0  0  0  0  0  0  0
    3.6574    1.4110    0.9715 C   0  0  0  0  0  0  0  0  0  0  0  0
    2.8946    2.4064    1.8497 C   0  0  0  0  0  0  0  0  0  0  0  0
    4.3760    0.3207    1.7741 C   0  0  0  0  0  0  0  0  0  0  0  0
    2.2264    0.5515   -2.0286 H   0  0  0  0  0  0  0  0  0  0  0  0
    3.2515    2.5753   -2.9719 H   0  0  0  0  0  0  0  0  0  0  0  0
    4.0841    2.9580   -1.4427 H   0  0  0  0  0  0  0  0  0  0  0  0
    2.2917    3.0345   -1.5245 H   0  0  0  0  0  0  0  0  0  0  0  0
    4.5337    0.3406   -2.9806 H   0  0  0  0  0  0  0  0  0  0  0  0
    4.2372   -0.8542   -1.6691 H   0  0  0  0  0  0  0  0  0  0  0  0
    5.2458    0.6046   -1.3626 H   0  0  0  0  0  0  0  0  0  0  0  0
    4.4197    1.9737    0.3955 H   0  0  0  0  0  0  0  0  0  0  0  0
    3.5894    2.8973    2.5603 H   0  0  0  0  0  0  0  0  0  0  0  0
    2.1090    1.8882    2.4327 H   0  0  0  0  0  0  0  0  0  0  0  0
    2.4068    3.1888    1.2362 H   0  0  0  0  0  0  0  0  0  0  0  0
    5.0931    0.7834    2.4813 H   0  0  0  0  0  0  0  0  0  0  0  0
    4.9297   -0.3651    1.1051 H   0  0  0  0  0  0  0  0  0  0  0  0
    3.6514   -0.2847    2.3513 H   0  0  0  0  0  0  0  0  0  0  0  0
  2  3  1  0  0  0  0
  2  7  1  0  0  0  0
  3  1  2  0  0  0  0
  4  2  1  0  0  0  0
  5 13  1  0  0  0  0
  5  4  1  0  0  0  0
  5 12  1  0  0  0  0
  6 15  1  0  0  0  0
  6  4  1  0  0  0  0
  6 16  1  0  0  0  0
  7  9  1  0  0  0  0
  7  8  1  0  0  0  0
  8 19  1  0  0  0  0
  8 18  1  0  0  0  0
  9 23  1  0  0  0  0
  9 21  1  0  0  0  0
 10  4  1  0  0  0  0
 11  5  1  0  0  0  0
 14  6  1  0  0  0  0
 17  7  1  0  0  0  0
 20  8  1  0  0  0  0
 22  9  1  0  0  0  0
M  END
