13
q = 0.0, confidence = 0.88

 20 20  0  0  1  0  0  0  0  0999 V2000
   -2.0000   -0.0953    1.6686 F   0  0  0  0  0  0  0  0  0  0  0  0
   -2.9980    0.2310   -1.7722 F   0  0  0  0  0  0  0  0  0  0  0  0
   -3.6987    2.5917   -1.0993 F   0  0  0  0  0  0  0  0  0  0  0  0
   -2.7889    2.5303    0.9054 F   0  0  0  0  0  0  0  0  0  0  0  0
   -4.4775    0.8120    1.8144 F   0  0  0  0  0  0  0  0  0  0  0  0
   -5.6448    2.1883    0.5547 F   0  0  0  0  0  0  0  0  0  0  0  0
   -6.1482    0.4368   -1.2091 F   0  0  0  0  0  0  0  0  0  0  0  0
   -5.5246   -2.0670   -1.1841 F   0  0  0  0  0  0  0  0  0  0  0  0
   -4.2096   -3.3821    0.4546 F   0  0  0  0  0  0  0  0  0  0  0  0
   -4.0775   -1.7456    1.9158 F   0  0  0  0  0  0  0  0  0  0  0  0
   -1.6826   -2.6589    0.9692 F   0  0  0  0  0  0  0  0  0  0  0  0
   -2.3273   -2.2745   -1.1053 F   0  0  0  0  0  0  0  0  0  0  0  0
   -1.9833   -0.3991    0.3330 C   0  0  2  0  0  0  0  0  0  0  0  0
   -2.4667    0.6610   -0.5651 C   0  0  2  0  0  0  0  0  0  0  0  0
   -3.3746    1.7761   -0.0605 C   0  0  0  0  0  0  0  0  0  0  0  0
   -4.7217    1.1905    0.5344 C   0  0  0  0  0  0  0  0  0  0  0  0
   -5.2839    0.0272   -0.2738 C   0  0  0  0  0  0  0  0  0  0  0  0
   -4.9514   -1.2879   -0.2602 C   0  0  0  0  0  0  0  0  0  0  0  0
   -3.9460   -2.0574    0.6020 C   0  0  0  0  0  0  0  0  0  0  0  0
   -2.4358   -1.8521    0.1839 C   0  0  0  0  0  0  0  0  0  0  0  0
  3 15  1  0  0  0  0
  7 17  1  0  0  0  0
  8 18  1  0  0  0  0
  9 19  1  0  0  0  0
 12 20  1  0  0  0  0
 13  1  1  1  0  0  0
 14  2  1  6  0  0  0
 14 15  1  0  0  0  0
 14 13  1  0  0  0  0
 15 16  1  0  0  0  0
 15  4  1  0  0  0  0
 16  6  1  0  0  0  0
 16  5  1  0  0  0  0
 17 18  2  0  0  0  0
 17 16  1  0  0  0  0
 18 19  1  0  0  0  0
 19 10  1  0  0  0  0
 20 13  1  0  0  0  0
 20 19  1  0  0  0  0
 20 11  1  0  0  0  0
M  END
