1
q = 0.0, confidence = 0.96

 48 50  0  0  1  0  0  0  0  0999 V2000
    0.0725   -0.8205    0.5871 C   0  0  0  0  0  2  0  0  0  0  0  0
   -1.2197   -0.5314   -0.0234 C   0  0  0  0  0  0  0  0  0  0  0  0
   -1.8478    0.6758   -0.1786 C   0  0  0  0  0  0  0  0  0  0  0  0
   -3.2273    0.3836   -0.8300 C   0  0  2  0  0  0  0  0  0  0  0  0
   -4.0201   -0.3898    0.2668 C   0  0  0  0  0  0  0  0  0  0  0  0
   -3.4113   -1.5886    0.4310 C   0  0  0  0  0  0  0  0  0  0  0  0
   -2.2054   -1.6276   -0.5461 C   0  0  1  0  0  0  0  0  0  0  0  0
   -2.8013   -0.8126   -1.7399 C   0  0  1  0  0  0  0  0  0  0  0  0
   -3.9522    1.5465   -1.4865 C   0  0  0  0  0  0  0  0  0  0  0  0
   -5.1529    0.2246    1.0159 C   0  0  0  0  0  0  0  0  0  0  0  0
   -3.6739   -2.6740    1.4176 C   0  0  0  0  0  0  0  0  0  0  0  0
   -1.6169   -2.9905   -0.8720 C   0  0  0  0  0  0  0  0  0  0  0  0
   -3.8966   -1.4846   -2.5547 C   0  0  0  0  0  0  0  0  0  0  0  0
   -1.4765    1.9666    0.4168 C   0  0  0  0  0  0  0  0  0  0  0  0
   -1.2613    2.0482    1.8143 C   0  0  0  0  0  0  0  0  0  0  0  0
   -0.9752    3.2764    2.4248 C   0  0  0  0  0  0  0  0  0  0  0  0
   -0.8863    4.4439    1.6516 C   0  0  0  0  0  0  0  0  0  0  0  0
   -1.0818    4.3746    0.2626 C   0  0  0  0  0  0  0  0  0  0  0  0
   -1.3834    3.1516   -0.3506 C   0  0  0  0  0  0  0  0  0  0  0  0
    0.9841   -2.4019    2.1956 C   0  0  0  0  0  0  0  0  0  0  0  0
    0.4155   -3.4812    3.0935 C   0  0  0  0  0  0  0  0  0  0  0  0
   -0.1126   -1.8034    1.4728 O   0  0  0  0  0  0  0  0  0  0  0  0
   -1.9837   -0.4885   -2.4196 H   0  0  0  0  0  0  0  0  0  0  0  0
   -4.1168    2.3826   -0.7785 H   0  0  0  0  0  0  0  0  0  0  0  0
   -4.9426    1.2243   -1.8654 H   0  0  0  0  0  0  0  0  0  0  0  0
   -3.3768    1.9420   -2.3469 H   0  0  0  0  0  0  0  0  0  0  0  0
   -5.5599   -0.4613    1.7845 H   0  0  0  0  0  0  0  0  0  0  0  0
   -5.9890    0.5128    0.3430 H   0  0  0  0  0  0  0  0  0  0  0  0
   -4.8317    1.1587    1.5281 H   0  0  0  0  0  0  0  0  0  0  0  0
   -4.5431   -2.4474    2.0655 H   0  0  0  0  0  0  0  0  0  0  0  0
   -2.7856   -2.8251    2.0703 H   0  0  0  0  0  0  0  0  0  0  0  0
   -3.8647   -3.6495    0.9207 H   0  0  0  0  0  0  0  0  0  0  0  0
   -1.2347   -3.5009    0.0319 H   0  0  0  0  0  0  0  0  0  0  0  0
   -0.7752   -2.9001   -1.5872 H   0  0  0  0  0  0  0  0  0  0  0  0
   -2.3844   -3.6464   -1.3294 H   0  0  0  0  0  0  0  0  0  0  0  0
   -4.7346   -1.8296   -1.9171 H   0  0  0  0  0  0  0  0  0  0  0  0
   -3.4946   -2.3597   -3.1043 H   0  0  0  0  0  0  0  0  0  0  0  0
   -4.3028   -0.7849   -3.3130 H   0  0  0  0  0  0  0  0  0  0  0  0
   -1.3452    1.1307    2.4155 H   0  0  0  0  0  0  0  0  0  0  0  0
   -0.8140    3.3209    3.5126 H   0  0  0  0  0  0  0  0  0  0  0  0
   -0.6536    5.4074    2.1293 H   0  0  0  0  0  0  0  0  0  0  0  0
   -0.9934    5.2835   -0.3517 H   0  0  0  0  0  0  0  0  0  0  0  0
   -1.5141    3.1005   -1.4405 H   0  0  0  0  0  0  0  0  0  0  0  0
    1.4961   -1.6066    2.7735 H   0  0  0  0  0  0  0  0  0  0  0  0
    1.7072   -2.8095    1.4599 H   0  0  0  0  0  0  0  0  0  0  0  0
   -0.3146   -3.0589    3.8122 H   0  0  0  0  0  0  0  0  0  0  0  0
    1.2331   -3.9565    3.6701 H   0  0  0  0  0  0  0  0  0  0  0  0
   -0.0924   -4.2683    2.5017 H   0  0  0  0  0  0  0  0  0  0  0  0
  1 22  1  0  0  0  0
  2  1  1  0  0  0  0
  3  2  2  0  0  0  0
  3 14  1  0  0  0  0
  4  9  1  6  0  0  0
  4  3  1  0  0  0  0
  4  5  1  0  0  0  0
  5  6  2  0  0  0  0
  5 10  1  0  0  0  0
  6 11  1  0  0  0  0
  7 12  1  6  0  0  0
  7  2  1  0  0  0  0
  7  6  1  0  0  0  0
  8 23  1  6  0  0  0
  8  4  1  0  0  0  0
  8  7  1  0  0  0  0
  9 24  1  0  0  0  0
 10 29  1  0  0  0  0
 10 27  1  0  0  0  0
 11 30  1  0  0  0  0
 11 31  1  0  0  0  0
 12 33  1  0  0  0  0
 13 36  1  0  0  0  0
 13  8  1  0  0  0  0
 14 15  1  0  0  0  0
 15 39  1  0  0  0  0
 15 16  2  0  0  0  0
 16 40  1  0  0  0  0
 17 41  1  0  0  0  0
 17 16  1  0  0  0  0
 18 17  2  0  0  0  0
 19 18  1  0  0  0  0
 19 14  2  0  0  0  0
 20 44  1  0  0  0  0
 20 21  1  0  0  0  0
 21 47  1  0  0  0  0
 21 46  1  0  0  0  0
 22 20  1  0  0  0  0
 25  9  1  0  0  0  0
 26  9  1  0  0  0  0
 28 10  1  0  0  0  0
 32 11  1  0  0  0  0
 34 12  1  0  0  0  0
 35 12  1  0  0  0  0
 37 13  1  0  0  0  0
 38 13  1  0  0  0  0
 42 18  1  0  0  0  0
 43 19  1  0  0  0  0
 45 20  1  0  0  0  0
 48 21  1  0  0  0  0
M  END
