10
q = -2.0, confidence = 0.84

 40 46  0  0  1  0  0  0  0  0999 V2000
    1.0571    0.7827   -0.1296 C   0  0  2  0  0  3  0  0  0  0  0  0
    2.6518    0.1959    0.1430 C   0  0  2  0  0  0  0  0  0  0  0  0
    2.8122   -1.3558    0.2146 C   0  0  0  0  0  0  0  0  0  0  0  0
    3.8342   -1.8651   -0.8253 C   0  0  0  0  0  0  0  0  0  0  0  0
    3.3150   -1.8105    1.6017 C   0  0  0  0  0  0  0  0  0  0  0  0
    1.4636   -2.0137   -0.0652 C   0  0  0  0  0  0  0  0  0  0  0  0
    0.9848   -2.4672   -1.3323 C   0  0  0  0  0  0  0  0  0  0  0  0
   -0.2274   -3.1851   -1.1301 C   0  0  0  0  0  0  0  0  0  0  0  0
   -0.5074   -3.1908    0.2656 C   0  0  0  0  0  0  0  0  0  0  0  0
    0.5174   -2.4536    0.9177 C   0  0  0  0  0  3  0  0  0  0  0  0
    2.2474    0.8509   -1.3718 B   0  0  1  0  0  0  0  0  0  0  0  0
    3.8215    1.2002   -0.6020 B   0  0  1  0  0  0  0  0  0  0  0  0
    3.5389    1.2619    1.1439 B   0  0  1  0  0  0  0  0  0  0  0  0
    1.7972    0.9554    1.4041 B   0  0  1  0  0  0  0  0  0  0  0  0
    1.1810    2.2174   -1.0650 B   0  0  2  0  0  0  0  0  0  0  0  0
    2.9059    2.5100   -1.3690 B   0  0  2  0  0  0  0  0  0  0  0  0
    3.6985    2.7698    0.2156 B   0  0  0  0  0  0  0  0  0  0  0  0
    2.4449    2.6164    1.4833 B   0  0  0  0  0  0  0  0  0  0  0  0
    0.9027    2.2852    0.6708 B   0  0  1  0  0  0  0  0  0  0  0  0
    2.0625    3.4077   -0.0747 B   0  0  2  0  0  0  0  0  0  0  0  0
    2.1494    0.1203   -2.3239 H   0  0  0  0  0  0  0  0  0  0  0  0
    4.8131    0.6893   -1.0554 H   0  0  0  0  0  0  0  0  0  0  0  0
    4.8509   -1.5159   -0.5697 H   0  0  0  0  0  0  0  0  0  0  0  0
    3.6049   -1.5145   -1.8475 H   0  0  0  0  0  0  0  0  0  0  0  0
    3.8365   -2.9725   -0.8243 H   0  0  0  0  0  0  0  0  0  0  0  0
    4.3321    0.7928    1.9202 H   0  0  0  0  0  0  0  0  0  0  0  0
    3.3187   -2.9168    1.6483 H   0  0  0  0  0  0  0  0  0  0  0  0
    2.6878   -1.4243    2.4249 H   0  0  0  0  0  0  0  0  0  0  0  0
    4.3466   -1.4528    1.7715 H   0  0  0  0  0  0  0  0  0  0  0  0
    1.3995    0.2965    2.3287 H   0  0  0  0  0  0  0  0  0  0  0  0
    1.4693   -2.2903   -2.2971 H   0  0  0  0  0  0  0  0  0  0  0  0
    0.3227    2.4469   -1.8765 H   0  0  0  0  0  0  0  0  0  0  0  0
   -0.8483   -3.6330   -1.9144 H   0  0  0  0  0  0  0  0  0  0  0  0
    3.2850    3.0104   -2.4027 H   0  0  0  0  0  0  0  0  0  0  0  0
   -1.3653   -3.6651    0.7513 H   0  0  0  0  0  0  0  0  0  0  0  0
    4.6754    3.4714    0.3467 H   0  0  0  0  0  0  0  0  0  0  0  0
    0.5936   -2.2791    1.9951 H   0  0  0  0  0  0  0  0  0  0  0  0
    2.4833    3.2006    2.5422 H   0  0  0  0  0  0  0  0  0  0  0  0
   -0.1619    2.5895    1.1410 H   0  0  0  0  0  0  0  0  0  0  0  0
    1.8155    4.5898   -0.1557 H   0  0  0  0  0  0  0  0  0  0  0  0
  1 19  1  0  0  0  0
  1 14  1  0  0  0  0
  2  3  1  0  0  0  0
  2 13  1  0  0  0  0
  2 14  1  0  0  0  0
  3  5  1  0  0  0  0
  4 25  1  0  0  0  0
  4 23  1  0  0  0  0
  4  3  1  0  0  0  0
  5 27  1  0  0  0  0
  5 29  1  0  0  0  0
  5 28  1  0  0  0  0
  6  3  1  0  0  0  0
  6 10  1  0  0  0  0
  7  8  1  0  0  0  0
  7  6  2  0  0  0  0
  8  9  2  0  0  0  0
  9 35  1  0  0  0  0
  9 10  1  0  0  0  0
 10 37  1  0  0  0  0
 11 16  1  0  0  0  0
 11 15  1  0  0  0  0
 11  2  1  0  0  0  0
 12 17  1  0  0  0  0
 12 13  1  0  0  0  0
 13 18  1  0  0  0  0
 13 26  1  0  0  0  0
 14 30  1  0  0  0  0
 15  1  1  0  0  0  0
 15 19  1  0  0  0  0
 16 12  1  0  0  0  0
 16 20  1  0  0  0  0
 17 36  1  0  0  0  0
 18 38  1  0  0  0  0
 19 39  1  0  0  0  0
 19 14  1  0  0  0  0
 20 17  1  0  0  0  0
 20 18  1  0  0  0  0
 21 11  1  0  0  0  0
 22 12  1  0  0  0  0
 24  4  1  0  0  0  0
 31  7  1  0  0  0  0
 32 15  1  0  0  0  0
 33  8  1  0  0  0  0
 34 16  1  0  0  0  0
 40 20  1  0  0  0  0
M  END
