28
q = 0.0, confidence = 0.994

 60 66  0  0  1  0  0  0  0  0999 V2000
   -0.7734    0.2454    0.6325 P   0  0  0  0  0  0  0  0  0  0  0  0
    0.8890    0.3007   -0.1212 C   0  0  0  0  0  0  0  0  0  0  0  0
    2.2203    0.5736    0.5800 C   0  0  2  0  0  0  0  0  0  0  0  0
    2.1061    0.9843    1.5986 H   0  0  0  0  0  0  0  0  0  0  0  0
    3.0059    1.4904   -0.3559 C   0  0  0  0  0  0  0  0  0  0  0  0
    3.5598    2.7331   -0.0353 C   0  0  0  0  0  0  0  0  0  0  0  0
    3.4536    3.1414    0.9818 H   0  0  0  0  0  0  0  0  0  0  0  0
    4.2514    3.4544   -1.0287 C   0  0  0  0  0  0  0  0  0  0  0  0
    4.6885    4.4348   -0.7861 H   0  0  0  0  0  0  0  0  0  0  0  0
    4.3861    2.9293   -2.3221 C   0  0  0  0  0  0  0  0  0  0  0  0
    4.9284    3.4987   -3.0919 H   0  0  0  0  0  0  0  0  0  0  0  0
    3.8291    1.6757   -2.6442 C   0  0  0  0  0  0  0  0  0  0  0  0
    3.9345    1.2623   -3.6592 H   0  0  0  0  0  0  0  0  0  0  0  0
    3.1387    0.9635   -1.6601 C   0  0  0  0  0  0  0  0  0  0  0  0
    2.4672   -0.4020   -1.8199 C   0  0  1  0  0  0  0  0  0  0  0  0
    2.5626   -0.8164   -2.8395 H   0  0  0  0  0  0  0  0  0  0  0  0
    3.0868   -1.3048   -0.7423 C   0  0  0  0  0  0  0  0  0  0  0  0
    3.7103   -2.5386   -0.9422 C   0  0  0  0  0  0  0  0  0  0  0  0
    3.8234   -2.9479   -1.9582 H   0  0  0  0  0  0  0  0  0  0  0  0
    4.1842   -3.2562    0.1754 C   0  0  0  0  0  0  0  0  0  0  0  0
    4.6696   -4.2330    0.0291 H   0  0  0  0  0  0  0  0  0  0  0  0
    4.0317   -2.7371    1.4687 C   0  0  0  0  0  0  0  0  0  0  0  0
    4.3918   -3.3102    2.3364 H   0  0  0  0  0  0  0  0  0  0  0  0
    3.4115   -1.4873    1.6685 C   0  0  0  0  0  0  0  0  0  0  0  0
    3.2740   -1.0850    2.6836 H   0  0  0  0  0  0  0  0  0  0  0  0
    2.9454   -0.7769    0.5609 C   0  0  0  0  0  0  0  0  0  0  0  0
    1.0150   -0.2138   -1.3697 C   0  0  0  0  0  0  0  0  0  0  0  0
   -0.1932   -0.6833   -2.0974 C   0  0  1  0  0  3  0  0  0  0  0  0
   -0.6515   -2.0430   -1.8893 C   0  0  0  0  0  0  0  0  0  0  0  0
   -0.0414   -2.7417   -1.2995 H   0  0  0  0  0  0  0  0  0  0  0  0
   -1.9673   -2.3910   -2.3109 C   0  0  0  0  0  0  0  0  0  0  0  0
   -2.3866   -3.3598   -2.0013 H   0  0  0  0  0  0  0  0  0  0  0  0
   -2.7887   -1.4745   -3.0489 C   0  0  0  0  0  3  0  0  0  0  0  0
   -3.8218   -1.7384   -3.3096 H   0  0  0  0  0  0  0  0  0  0  0  0
   -2.2922   -0.1613   -3.2950 C   0  0  0  0  0  0  0  0  0  0  0  0
   -2.9624    0.5943   -3.7307 H   0  0  0  0  0  0  0  0  0  0  0  0
   -0.9888    0.2431   -2.8663 C   0  0  0  0  0  0  0  0  0  0  0  0
   -0.6494    1.2797   -2.9957 H   0  0  0  0  0  0  0  0  0  0  0  0
   -0.4044   -0.8211    2.0894 C   0  0  0  0  0  0  0  0  0  0  0  0
   -0.4304   -2.2204    1.9290 C   0  0  0  0  0  0  0  0  0  0  0  0
   -0.8376   -2.6458    1.0008 H   0  0  0  0  0  0  0  0  0  0  0  0
    0.0223   -3.0517    2.9621 C   0  0  0  0  0  0  0  0  0  0  0  0
   -0.0030   -4.1441    2.8324 H   0  0  0  0  0  0  0  0  0  0  0  0
    0.4953   -2.4954    4.1622 C   0  0  0  0  0  0  0  0  0  0  0  0
    0.8475   -3.1515    4.9728 H   0  0  0  0  0  0  0  0  0  0  0  0
    0.5061   -1.1021    4.3315 C   0  0  0  0  0  0  0  0  0  0  0  0
    0.8631   -0.6614    5.2748 H   0  0  0  0  0  0  0  0  0  0  0  0
    0.0585   -0.2633    3.2981 C   0  0  0  0  0  0  0  0  0  0  0  0
    0.0652    0.8288    3.4336 H   0  0  0  0  0  0  0  0  0  0  0  0
   -1.0836    1.8948    1.3408 C   0  0  0  0  0  0  0  0  0  0  0  0
   -0.2813    3.0012    1.0057 C   0  0  0  0  0  0  0  0  0  0  0  0
    0.5688    2.8827    0.3161 H   0  0  0  0  0  0  0  0  0  0  0  0
   -0.5757    4.2641    1.5440 C   0  0  0  0  0  0  0  0  0  0  0  0
    0.0549    5.1279    1.2839 H   0  0  0  0  0  0  0  0  0  0  0  0
   -1.6719    4.4228    2.4055 C   0  0  0  0  0  0  0  0  0  0  0  0
   -1.9020    5.4138    2.8255 H   0  0  0  0  0  0  0  0  0  0  0  0
   -2.4844    3.3204    2.7226 C   0  0  0  0  0  0  0  0  0  0  0  0
   -3.3566    3.4487    3.3811 H   0  0  0  0  0  0  0  0  0  0  0  0
   -2.2007    2.0580    2.1866 C   0  0  0  0  0  0  0  0  0  0  0  0
   -2.8474    1.1956    2.4092 H   0  0  0  0  0  0  0  0  0  0  0  0
  1 50  1  0  0  0  0
  1 39  1  0  0  0  0
  2  3  1  0  0  0  0
  2  1  1  0  0  0  0
  3  4  1  1  0  0  0
  5  6  1  0  0  0  0
  5  3  1  0  0  0  0
  6  7  1  0  0  0  0
  8  9  1  0  0  0  0
  8  6  2  0  0  0  0
 10  8  1  0  0  0  0
 11 10  1  0  0  0  0
 12 10  2  0  0  0  0
 12 14  1  0  0  0  0
 13 12  1  0  0  0  0
 14  5  2  0  0  0  0
 15 16  1  6  0  0  0
 15 14  1  0  0  0  0
 15 27  1  0  0  0  0
 15 17  1  0  0  0  0
 17 26  1  0  0  0  0
 18 17  2  0  0  0  0
 18 20  1  0  0  0  0
 19 18  1  0  0  0  0
 20 22  2  0  0  0  0
 21 20  1  0  0  0  0
 22 24  1  0  0  0  0
 22 23  1  0  0  0  0
 24 25  1  0  0  0  0
 26  3  1  0  0  0  0
 26 24  2  0  0  0  0
 27  2  2  0  0  0  0
 28 29  1  0  0  0  0
 28 27  1  1  0  0  0
 29 30  1  0  0  0  0
 31 32  1  0  0  0  0
 31 29  2  0  0  0  0
 33 31  1  0  0  0  0
 34 33  1  0  0  0  0
 35 33  1  0  0  0  0
 35 37  2  0  0  0  0
 36 35  1  0  0  0  0
 37 28  1  0  0  0  0
 38 37  1  0  0  0  0
 39 48  1  0  0  0  0
 40 39  2  0  0  0  0
 40 42  1  0  0  0  0
 41 40  1  0  0  0  0
 42 44  2  0  0  0  0
 43 42  1  0  0  0  0
 44 46  1  0  0  0  0
 44 45  1  0  0  0  0
 46 47  1  0  0  0  0
 48 49  1  0  0  0  0
 48 46  2  0  0  0  0
 50 59  1  0  0  0  0
 51 50  2  0  0  0  0
 51 53  1  0  0  0  0
 52 51  1  0  0  0  0
 53 55  2  0  0  0  0
 54 53  1  0  0  0  0
 55 57  1  0  0  0  0
 55 56  1  0  0  0  0
 57 58  1  0  0  0  0
 59 60  1  0  0  0  0
 59 57  2  0  0  0  0
M  END
