3
q = 0.0, confidence = 0.96

 33 36  0  0  1  0  0  0  0  0999 V2000
   -0.1668    0.1557    0.0570 N   0  0  0  0  0  0  0  0  0  0  0  0
    0.6942   -1.7431   -0.7793 C   0  0  0  0  0  3  0  0  0  0  0  0
    0.6256   -1.8539    0.6636 C   0  0  0  0  0  3  0  0  0  0  0  0
   -0.5102   -0.9198    1.0792 C   0  0  2  0  0  0  0  0  0  0  0  0
   -1.8362   -1.4626    0.5703 C   0  0  0  0  0  0  0  0  0  0  0  0
   -2.9373   -2.0456    1.1983 C   0  0  0  0  0  0  0  0  0  0  0  0
   -3.9998   -2.5012    0.3907 C   0  0  0  0  0  0  0  0  0  0  0  0
   -3.9463   -2.3782   -1.0080 C   0  0  0  0  0  0  0  0  0  0  0  0
   -2.8259   -1.8009   -1.6406 C   0  0  0  0  0  0  0  0  0  0  0  0
   -1.7781   -1.3474   -0.8391 C   0  0  0  0  0  0  0  0  0  0  0  0
   -0.4201   -0.7507   -1.1516 C   0  0  1  0  0  0  0  0  0  0  0  0
   -0.8708    1.4155    0.1564 C   0  0  0  0  0  0  0  0  0  0  0  0
   -1.8442    1.5869    1.1638 C   0  0  0  0  0  0  0  0  0  0  0  0
   -2.5517    2.7870    1.3015 C   0  0  0  0  0  0  0  0  0  0  0  0
   -2.3001    3.8449    0.4210 C   0  0  0  0  0  0  0  0  0  0  0  0
   -1.3296    3.6831   -0.5748 C   0  0  0  0  0  0  0  0  0  0  0  0
   -0.5918    2.4920   -0.7313 C   0  0  0  0  0  0  0  0  0  0  0  0
    0.4899    2.4580   -1.7749 C   0  0  0  0  0  0  0  0  0  0  0  0
    1.0152   -2.5391   -1.4644 H   0  0  0  0  0  0  0  0  0  0  0  0
    0.8706   -2.7527    1.2449 H   0  0  0  0  0  0  0  0  0  0  0  0
   -0.4599   -0.5544    2.1192 H   0  0  0  0  0  0  0  0  0  0  0  0
   -2.9855   -2.1425    2.2941 H   0  0  0  0  0  0  0  0  0  0  0  0
   -4.8860   -2.9526    0.8621 H   0  0  0  0  0  0  0  0  0  0  0  0
   -4.7914   -2.7337   -1.6168 H   0  0  0  0  0  0  0  0  0  0  0  0
   -2.7856   -1.7110   -2.7370 H   0  0  0  0  0  0  0  0  0  0  0  0
   -0.3066   -0.2289   -2.1161 H   0  0  0  0  0  0  0  0  0  0  0  0
   -2.0731    0.7645    1.8505 H   0  0  0  0  0  0  0  0  0  0  0  0
   -3.3060    2.8828    2.0964 H   0  0  0  0  0  0  0  0  0  0  0  0
   -2.8499    4.7936    0.5096 H   0  0  0  0  0  0  0  0  0  0  0  0
   -1.1138    4.5155   -1.2625 H   0  0  0  0  0  0  0  0  0  0  0  0
    0.4611    3.3760   -2.3915 H   0  0  0  0  0  0  0  0  0  0  0  0
    1.4874    2.4022   -1.2954 H   0  0  0  0  0  0  0  0  0  0  0  0
    0.4246    1.5925   -2.4613 H   0  0  0  0  0  0  0  0  0  0  0  0
  1 12  1  0  0  0  0
  1  4  1  0  0  0  0
  2  3  1  0  0  0  0
  3  4  1  0  0  0  0
  3 20  1  0  0  0  0
  4 21  1  1  0  0  0
  5  4  1  0  0  0  0
  5  6  1  0  0  0  0
  6 22  1  0  0  0  0
  7 23  1  0  0  0  0
  7  6  2  0  0  0  0
  8  7  1  0  0  0  0
  9  8  2  0  0  0  0
  9 10  1  0  0  0  0
 10  5  2  0  0  0  0
 11 26  1  6  0  0  0
 11 10  1  0  0  0  0
 11  2  1  0  0  0  0
 11  1  1  0  0  0  0
 12 13  1  0  0  0  0
 13 14  2  0  0  0  0
 13 27  1  0  0  0  0
 14 28  1  0  0  0  0
 15 29  1  0  0  0  0
 15 14  1  0  0  0  0
 16 15  2  0  0  0  0
 17 16  1  0  0  0  0
 17 12  2  0  0  0  0
 18 32  1  0  0  0  0
 18 17  1  0  0  0  0
 19  2  1  0  0  0  0
 24  8  1  0  0  0  0
 25  9  1  0  0  0  0
 30 16  1  0  0  0  0
 31 18  1  0  0  0  0
 33 18  1  0  0  0  0
M  END
