5
q = 0.0, confidence = 0.992

 13 13  0  0  0  0  0  0  0  0999 V2000
    1.3049   -1.6485   -1.1721 N   0  0  0  0  0  0  0  0  0  0  0  0
    2.4499   -2.3970   -1.1536 N   0  0  0  0  0  0  0  0  0  0  0  0
    3.2754   -1.8104   -0.3771 N   0  0  0  0  0  0  0  0  0  0  0  0
    2.6618   -0.6895    0.1034 N   0  0  0  0  0  0  0  0  0  0  0  0
    1.3842   -0.5338   -0.3729 C   0  0  0  0  0  2  0  0  0  0  0  0
    0.2011   -2.1103   -1.9939 C   0  0  0  0  0  0  0  0  0  0  0  0
    3.4070    0.1766    1.0006 C   0  0  0  0  0  0  0  0  0  0  0  0
    0.5883   -2.9283   -2.6263 H   0  0  0  0  0  0  0  0  0  0  0  0
   -0.1713   -1.2862   -2.6266 H   0  0  0  0  0  0  0  0  0  0  0  0
   -0.6266   -2.4933   -1.3673 H   0  0  0  0  0  0  0  0  0  0  0  0
    4.4084   -0.2712    1.1233 H   0  0  0  0  0  0  0  0  0  0  0  0
    2.9014    0.2483    1.9806 H   0  0  0  0  0  0  0  0  0  0  0  0
    3.4941    1.1897    0.5678 H   0  0  0  0  0  0  0  0  0  0  0  0
  1  2  1  0  0  0  0
  1  5  1  0  0  0  0
  2  3  2  0  0  0  0
  3  4  1  0  0  0  0
  4  7  1  0  0  0  0
  5  4  1  0  0  0  0
  6 10  1  0  0  0  0
  6  1  1  0  0  0  0
  7 11  1  0  0  0  0
  7 12  1  0  0  0  0
  8  6  1  0  0  0  0
  9  6  1  0  0  0  0
 13  7  1  0  0  0  0
M  END
