6
q = -1.0, confidence = 0.04

  7  6  0  0  0  0  0  0  0  0999 V2000
   -0.6708   -4.6206    0.3387 Cl  0  0  0  0  0  0  0  0  0  0  0  0
    1.2378   -2.5165   -0.2294 F   0  0  0  0  0  0  0  0  0  0  0  0
    0.2267   -2.1925    1.7072 F   0  0  0  0  0  0  0  0  0  0  0  0
   -2.2042   -2.5745    0.5111 F   0  0  0  0  0  0  0  0  0  0  0  0
   -1.2555   -2.8562   -1.4281 F   0  0  0  0  0  0  0  0  0  0  0  0
    0.1050   -1.9551    0.3520 C   0  0  0  0  0  0  0  0  0  0  0  0
   -1.0441   -2.9092   -0.1096 C   0  0  0  0  0  0  0  0  0  0  0  0
  2  6  1  0  0  0  0
  5  7  1  0  0  0  0
  6  3  1  0  0  0  0
  7  1  1  0  0  0  0
  7  6  1  0  0  0  0
  7  4  1  0  0  0  0
M  END
