1
q = -1.0, confidence = 0.0

 23 24  0  0  0  0  0  0  0  0999 V2000
   -1.0223    1.7156    0.7129 C   0  0  0  0  0  3  0  0  0  0  0  0
    0.2815    3.7335    1.3250 C   0  0  0  0  0  0  0  0  0  0  0  0
    1.2605    4.2226    1.4391 H   0  0  0  0  0  0  0  0  0  0  0  0
    6.1608    1.0079   -0.6786 C   0  0  0  0  0  0  0  0  0  0  0  0
    6.9792    1.6905   -0.9538 H   0  0  0  0  0  0  0  0  0  0  0  0
    5.3322   -1.2433   -0.2962 C   0  0  0  0  0  0  0  0  0  0  0  0
    5.4987   -2.3308   -0.2658 H   0  0  0  0  0  0  0  0  0  0  0  0
    2.5541    1.2149    0.3098 C   0  0  0  0  0  0  0  0  0  0  0  0
   -2.1900    2.4398    1.0474 C   0  0  0  0  0  0  0  0  0  0  0  0
   -3.1688    1.9402    0.9738 H   0  0  0  0  0  0  0  0  0  0  0  0
   -0.8980    4.4199    1.6257 C   0  0  0  0  0  0  0  0  0  0  0  0
   -0.8517    5.4621    1.9764 H   0  0  0  0  0  0  0  0  0  0  0  0
    0.2311    2.3926    0.8595 C   0  0  0  0  0  0  0  0  0  0  0  0
    1.4554    1.7277    0.5457 C   0  0  0  0  0  0  0  0  0  0  0  0
    6.3817   -0.3795   -0.6507 C   0  0  0  0  0  0  0  0  0  0  0  0
    7.3724   -0.7869   -0.9025 H   0  0  0  0  0  0  0  0  0  0  0  0
    4.9031    1.5313   -0.3597 C   0  0  0  0  0  0  0  0  0  0  0  0
    4.7265    2.6164   -0.3836 H   0  0  0  0  0  0  0  0  0  0  0  0
    4.0711   -0.7302    0.0278 C   0  0  0  0  0  0  0  0  0  0  0  0
    3.2538   -1.4067    0.3164 H   0  0  0  0  0  0  0  0  0  0  0  0
   -2.1386    3.7709    1.4871 C   0  0  0  0  0  0  0  0  0  0  0  0
   -3.0694    4.3033    1.7379 H   0  0  0  0  0  0  0  0  0  0  0  0
    3.8329    0.6691   -0.0013 C   0  0  0  0  0  0  0  0  0  0  0  0
  1 13  2  0  0  0  0
  1  9  1  0  0  0  0
  2  3  1  0  0  0  0
  2 11  2  0  0  0  0
  4 15  2  0  0  0  0
  4 17  1  0  0  0  0
  5  4  1  0  0  0  0
  6  7  1  0  0  0  0
  6 19  2  0  0  0  0
  8 14  3  0  0  0  0
  9 21  2  0  0  0  0
 10  9  1  0  0  0  0
 11 12  1  0  0  0  0
 13  2  1  0  0  0  0
 14 13  1  0  0  0  0
 15  6  1  0  0  0  0
 16 15  1  0  0  0  0
 17 23  2  0  0  0  0
 18 17  1  0  0  0  0
 19 20  1  0  0  0  0
 21 11  1  0  0  0  0
 21 22  1  0  0  0  0
 23 19  1  0  0  0  0
 23  8  1  0  0  0  0
M  END
