5
q = -1.0, confidence = 0.002

 23 24  0  0  1  0  0  0  0  0999 V2000
    2.9832   -0.0621    0.1185 N   0  0  0  0  0  0  0  0  0  0  0  0
    3.6373   -0.6403    2.2717 O   0  0  0  0  0  0  0  0  0  0  0  0
    2.9012    0.2934   -2.1821 O   0  0  0  0  0  0  0  0  0  0  0  0
    0.5851   -0.5194   -0.2009 C   0  0  0  0  0  3  0  0  0  0  0  0
   -0.0285   -0.0716   -1.4139 C   0  0  0  0  0  3  0  0  0  0  0  0
   -0.3747    1.3149   -1.4293 C   0  0  0  0  0  3  0  0  0  0  0  0
    0.4694    2.2595   -0.6766 C   0  0  0  0  0  0  0  0  0  0  0  0
    1.4238    1.8384    0.1823 C   0  0  0  0  0  0  0  0  0  0  0  0
    1.6179    0.3730    0.4823 C   0  0  2  0  0  0  0  0  0  0  0  0
    3.8848   -0.5377    1.0847 C   0  0  0  0  0  0  0  0  0  0  0  0
    5.1891   -0.8869    0.3711 C   0  0  0  0  0  0  0  0  0  0  0  0
    4.9493   -0.5522   -1.1043 C   0  0  0  0  0  0  0  0  0  0  0  0
    3.5052   -0.0512   -1.1842 C   0  0  0  0  0  0  0  0  0  0  0  0
    0.8014   -1.5968   -0.1016 H   0  0  0  0  0  0  0  0  0  0  0  0
   -0.2281   -0.7350   -2.2677 H   0  0  0  0  0  0  0  0  0  0  0  0
   -0.9213    1.7104   -2.2990 H   0  0  0  0  0  0  0  0  0  0  0  0
    0.3012    3.3359   -0.8338 H   0  0  0  0  0  0  0  0  0  0  0  0
    2.0643    2.5522    0.7221 H   0  0  0  0  0  0  0  0  0  0  0  0
    1.6011    0.2157    1.5832 H   0  0  0  0  0  0  0  0  0  0  0  0
    6.0096   -0.3077    0.8396 H   0  0  0  0  0  0  0  0  0  0  0  0
    5.4139   -1.9559    0.5591 H   0  0  0  0  0  0  0  0  0  0  0  0
    5.6135    0.2440   -1.4963 H   0  0  0  0  0  0  0  0  0  0  0  0
    5.0589   -1.4169   -1.7884 H   0  0  0  0  0  0  0  0  0  0  0  0
  1  9  1  0  0  0  0
  1 10  1  0  0  0  0
  3 13  2  0  0  0  0
  4 14  1  0  0  0  0
  4  9  1  0  0  0  0
  5  4  1  0  0  0  0
  6  5  1  0  0  0  0
  6  7  1  0  0  0  0
  7  8  2  0  0  0  0
  8  9  1  0  0  0  0
  8 18  1  0  0  0  0
  9 19  1  1  0  0  0
 10  2  2  0  0  0  0
 11 21  1  0  0  0  0
 11 20  1  0  0  0  0
 11 10  1  0  0  0  0
 12 11  1  0  0  0  0
 13 12  1  0  0  0  0
 13  1  1  0  0  0  0
 15  5  1  0  0  0  0
 16  6  1  0  0  0  0
 17  7  1  0  0  0  0
 22 12  1  0  0  0  0
 23 12  1  0  0  0  0
M  END
