3
q = -2.0, confidence = 0.842

 49 52  0  0  0  0  0  0  0  0999 V2000
   -1.3774    0.3221    2.6084 S   0  0  0  0  0  1  0  0  0  0  0  0
    0.3986    0.2883    1.5815 P   0  0  0  0  0  4  0  0  0  0  0  0
   -0.1284    0.0001   -0.0000 C   0  0  0  0  0  2  0  0  0  0  0  0
    1.3330    1.8536    1.8081 C   0  0  0  0  0  0  0  0  0  0  0  0
    1.3070    2.8112    0.7771 C   0  0  0  0  0  0  0  0  0  0  0  0
    0.7605    2.5822   -0.1499 H   0  0  0  0  0  0  0  0  0  0  0  0
    1.9870    4.0284    0.9327 C   0  0  0  0  0  0  0  0  0  0  0  0
    1.9749    4.7664    0.1163 H   0  0  0  0  0  0  0  0  0  0  0  0
    2.6860    4.2951    2.1207 C   0  0  0  0  0  0  0  0  0  0  0  0
    3.2208    5.2494    2.2430 H   0  0  0  0  0  0  0  0  0  0  0  0
    2.7058    3.3430    3.1551 C   0  0  0  0  0  0  0  0  0  0  0  0
    3.2527    3.5531    4.0871 H   0  0  0  0  0  0  0  0  0  0  0  0
    2.0320    2.1231    3.0017 C   0  0  0  0  0  0  0  0  0  0  0  0
    2.0506    1.3744    3.8092 H   0  0  0  0  0  0  0  0  0  0  0  0
    1.5273   -0.9990    2.2566 C   0  0  0  0  0  0  0  0  0  0  0  0
    2.8714   -1.0279    1.8298 C   0  0  0  0  0  0  0  0  0  0  0  0
    3.2740   -0.1981    1.2273 H   0  0  0  0  0  0  0  0  0  0  0  0
    3.6915   -2.1129    2.1689 C   0  0  0  0  0  0  0  0  0  0  0  0
    4.7384   -2.1350    1.8300 H   0  0  0  0  0  0  0  0  0  0  0  0
    3.1772   -3.1718    2.9368 C   0  0  0  0  0  0  0  0  0  0  0  0
    3.8224   -4.0238    3.2001 H   0  0  0  0  0  0  0  0  0  0  0  0
    1.8429   -3.1379    3.3744 C   0  0  0  0  0  0  0  0  0  0  0  0
    1.4422   -3.9601    3.9870 H   0  0  0  0  0  0  0  0  0  0  0  0
    1.0176   -2.0538    3.0362 C   0  0  0  0  0  0  0  0  0  0  0  0
   -0.0314   -2.0034    3.3711 H   0  0  0  0  0  0  0  0  0  0  0  0
   -1.3774   -0.3224   -2.6084 S   0  0  0  0  0  1  0  0  0  0  0  0
    0.3986   -0.2883   -1.5815 P   0  0  0  0  0  4  0  0  0  0  0  0
    1.3331   -1.8536   -1.8079 C   0  0  0  0  0  0  0  0  0  0  0  0
    1.3068   -2.8112   -0.7770 C   0  0  0  0  0  0  0  0  0  0  0  0
    0.7600   -2.5824    0.1498 H   0  0  0  0  0  0  0  0  0  0  0  0
    1.9869   -4.0284   -0.9325 C   0  0  0  0  0  0  0  0  0  0  0  0
    1.9746   -4.7664   -0.1161 H   0  0  0  0  0  0  0  0  0  0  0  0
    2.6863   -4.2950   -2.1202 C   0  0  0  0  0  0  0  0  0  0  0  0
    3.2212   -5.2493   -2.2425 H   0  0  0  0  0  0  0  0  0  0  0  0
    2.7065   -3.3428   -3.1546 C   0  0  0  0  0  0  0  0  0  0  0  0
    3.2537   -3.5529   -4.0864 H   0  0  0  0  0  0  0  0  0  0  0  0
    2.0326   -2.1230   -3.0013 C   0  0  0  0  0  0  0  0  0  0  0  0
    2.0514   -1.3742   -3.8087 H   0  0  0  0  0  0  0  0  0  0  0  0
    1.5272    0.9990   -2.2568 C   0  0  0  0  0  0  0  0  0  0  0  0
    2.8713    1.0282   -1.8299 C   0  0  0  0  0  0  0  0  0  0  0  0
    3.2740    0.1985   -1.2273 H   0  0  0  0  0  0  0  0  0  0  0  0
    3.6912    2.1133   -2.1692 C   0  0  0  0  0  0  0  0  0  0  0  0
    4.7381    2.1356   -1.8301 H   0  0  0  0  0  0  0  0  0  0  0  0
    3.1768    3.1719   -2.9372 C   0  0  0  0  0  0  0  0  0  0  0  0
    3.8219    4.0240   -3.2006 H   0  0  0  0  0  0  0  0  0  0  0  0
    1.8426    3.1378   -3.3749 C   0  0  0  0  0  0  0  0  0  0  0  0
    1.4418    3.9598   -3.9876 H   0  0  0  0  0  0  0  0  0  0  0  0
    1.0174    2.0536   -3.0365 C   0  0  0  0  0  0  0  0  0  0  0  0
   -0.0316    2.0031   -3.3714 H   0  0  0  0  0  0  0  0  0  0  0  0
  2  4  1  0  0  0  0
  2 15  1  0  0  0  0
  2  1  1  0  0  0  0
  3  2  1  0  0  0  0
  4 13  1  0  0  0  0
  5  7  1  0  0  0  0
  5  4  2  0  0  0  0
  6  5  1  0  0  0  0
  7  9  2  0  0  0  0
  8  7  1  0  0  0  0
  9 10  1  0  0  0  0
  9 11  1  0  0  0  0
 11 12  1  0  0  0  0
 13 11  2  0  0  0  0
 13 14  1  0  0  0  0
 15 24  1  0  0  0  0
 16 18  1  0  0  0  0
 16 15  2  0  0  0  0
 17 16  1  0  0  0  0
 18 20  2  0  0  0  0
 19 18  1  0  0  0  0
 20 21  1  0  0  0  0
 20 22  1  0  0  0  0
 22 23  1  0  0  0  0
 24 25  1  0  0  0  0
 24 22  2  0  0  0  0
 26 27  1  0  0  0  0
 27  3  1  0  0  0  0
 28 27  1  0  0  0  0
 28 29  1  0  0  0  0
 29 30  1  0  0  0  0
 31 29  2  0  0  0  0
 31 32  1  0  0  0  0
 33 31  1  0  0  0  0
 34 33  1  0  0  0  0
 35 37  1  0  0  0  0
 35 33  2  0  0  0  0
 36 35  1  0  0  0  0
 37 28  2  0  0  0  0
 38 37  1  0  0  0  0
 39 40  1  0  0  0  0
 39 27  1  0  0  0  0
 40 41  1  0  0  0  0
 42 43  1  0  0  0  0
 42 40  2  0  0  0  0
 44 42  1  0  0  0  0
 45 44  1  0  0  0  0
 46 48  1  0  0  0  0
 46 44  2  0  0  0  0
 47 46  1  0  0  0  0
 48 39  2  0  0  0  0
 49 48  1  0  0  0  0
M  END
