3
q = -1.0, confidence = 0.0

 32 31  0  0  0  0  0  0  0  0999 V2000
    3.3536    1.0909   -1.6449 O   0  0  0  0  0  0  0  0  0  0  0  0
    2.3565   -1.8466   -1.1176 O   0  0  0  0  0  0  0  0  0  0  0  0
    2.6354    0.0123    0.3785 C   0  0  0  0  0  3  0  0  0  0  0  0
    3.0370    1.1919   -0.4604 C   0  0  0  0  0  0  0  0  0  0  0  0
    3.0363    2.6156    0.1897 C   0  0  0  0  0  0  0  0  0  0  0  0
    4.4342    3.2144   -0.0648 C   0  0  0  0  0  0  0  0  0  0  0  0
    1.9742    3.4372   -0.5701 C   0  0  0  0  0  0  0  0  0  0  0  0
    2.7254    2.6368    1.6920 C   0  0  0  0  0  0  0  0  0  0  0  0
    3.0295   -1.3086   -0.2425 C   0  0  0  0  0  0  0  0  0  0  0  0
    4.3504   -1.9612    0.2404 C   0  0  0  0  0  0  0  0  0  0  0  0
    4.6531   -3.1860   -0.6335 C   0  0  0  0  0  0  0  0  0  0  0  0
    4.1695   -2.4018    1.7099 C   0  0  0  0  0  0  0  0  0  0  0  0
    5.5006   -0.9384    0.1330 C   0  0  0  0  0  0  0  0  0  0  0  0
    2.9895    0.1273    1.4196 H   0  0  0  0  0  0  0  0  0  0  0  0
    4.4721    4.2726    0.2667 H   0  0  0  0  0  0  0  0  0  0  0  0
    5.2163    2.6542    0.4888 H   0  0  0  0  0  0  0  0  0  0  0  0
    4.6765    3.1638   -1.1435 H   0  0  0  0  0  0  0  0  0  0  0  0
    0.9561    3.0393   -0.3726 H   0  0  0  0  0  0  0  0  0  0  0  0
    1.9962    4.4992   -0.2482 H   0  0  0  0  0  0  0  0  0  0  0  0
    2.1628    3.3871   -1.6601 H   0  0  0  0  0  0  0  0  0  0  0  0
    1.7335    2.1896    1.9110 H   0  0  0  0  0  0  0  0  0  0  0  0
    3.4883    2.0890    2.2822 H   0  0  0  0  0  0  0  0  0  0  0  0
    2.7122    3.6833    2.0611 H   0  0  0  0  0  0  0  0  0  0  0  0
    5.5815   -3.6850   -0.2880 H   0  0  0  0  0  0  0  0  0  0  0  0
    3.8214   -3.9157   -0.5965 H   0  0  0  0  0  0  0  0  0  0  0  0
    4.7828   -2.8925   -1.6934 H   0  0  0  0  0  0  0  0  0  0  0  0
    5.0947   -2.8976    2.0709 H   0  0  0  0  0  0  0  0  0  0  0  0
    3.9666   -1.5431    2.3809 H   0  0  0  0  0  0  0  0  0  0  0  0
    3.3335   -3.1233    1.8130 H   0  0  0  0  0  0  0  0  0  0  0  0
    6.4619   -1.4205    0.4074 H   0  0  0  0  0  0  0  0  0  0  0  0
    5.5872   -0.5429   -0.8981 H   0  0  0  0  0  0  0  0  0  0  0  0
    5.3513   -0.0761    0.8133 H   0  0  0  0  0  0  0  0  0  0  0  0
  1  4  2  0  0  0  0
  2  9  2  0  0  0  0
  3 14  1  0  0  0  0
  4  5  1  0  0  0  0
  4  3  1  0  0  0  0
  5  8  1  0  0  0  0
  6  5  1  0  0  0  0
  6 15  1  0  0  0  0
  6 16  1  0  0  0  0
  7 18  1  0  0  0  0
  7 19  1  0  0  0  0
  7  5  1  0  0  0  0
  8 21  1  0  0  0  0
  8 23  1  0  0  0  0
  8 22  1  0  0  0  0
  9 10  1  0  0  0  0
  9  3  1  0  0  0  0
 10 12  1  0  0  0  0
 11 25  1  0  0  0  0
 11 24  1  0  0  0  0
 11 10  1  0  0  0  0
 12 29  1  0  0  0  0
 12 27  1  0  0  0  0
 12 28  1  0  0  0  0
 13 10  1  0  0  0  0
 13 30  1  0  0  0  0
 13 32  1  0  0  0  0
 17  6  1  0  0  0  0
 20  7  1  0  0  0  0
 26 11  1  0  0  0  0
 31 13  1  0  0  0  0
M  END
