4
q = 0.0, confidence = 0.974

 16 15  0  0  0  0  0  0  0  0999 V2000
    1.8044   -2.4779   -0.5274 O   0  0  0  0  0  0  0  0  0  0  0  0
    4.6710   -1.3733   -1.6274 O   0  0  0  0  0  0  0  0  0  0  0  0
    4.4134   -1.5651    0.6160 O   0  0  0  0  0  0  0  0  0  0  0  0
    1.4910   -1.1738   -0.3846 C   0  0  0  0  0  2  0  0  0  0  0  0
    0.8033   -3.4845   -0.4139 C   0  0  0  0  0  0  0  0  0  0  0  0
    2.7461   -0.3433   -0.5331 C   0  0  0  0  0  0  0  0  0  0  0  0
    4.0302   -1.1293   -0.6220 C   0  0  0  0  0  0  0  0  0  0  0  0
    5.5908   -2.3659    0.6313 C   0  0  0  0  0  0  0  0  0  0  0  0
    0.3608   -3.4916    0.6010 H   0  0  0  0  0  0  0  0  0  0  0  0
    1.3156   -4.4470   -0.6007 H   0  0  0  0  0  0  0  0  0  0  0  0
    0.0025   -3.3399   -1.1640 H   0  0  0  0  0  0  0  0  0  0  0  0
    2.6111    0.2862   -1.4379 H   0  0  0  0  0  0  0  0  0  0  0  0
    2.7560    0.3483    0.3374 H   0  0  0  0  0  0  0  0  0  0  0  0
    5.4488   -3.2968    0.0423 H   0  0  0  0  0  0  0  0  0  0  0  0
    5.7868   -2.6114    1.6914 H   0  0  0  0  0  0  0  0  0  0  0  0
    6.4549   -1.8215    0.1967 H   0  0  0  0  0  0  0  0  0  0  0  0
  1  5  1  0  0  0  0
  1  4  1  0  0  0  0
  2  7  2  0  0  0  0
  3  8  1  0  0  0  0
  5  9  1  0  0  0  0
  6  4  1  0  0  0  0
  6 13  1  0  0  0  0
  7  6  1  0  0  0  0
  7  3  1  0  0  0  0
  8 15  1  0  0  0  0
 10  5  1  0  0  0  0
 11  5  1  0  0  0  0
 12  6  1  0  0  0  0
 14  8  1  0  0  0  0
 16  8  1  0  0  0  0
M  END
