3
q = -1.0, confidence = 0.0

 12 12  0  0  0  0  0  0  0  0999 V2000
    6.2283    0.0793   -0.9149 O   0  0  0  0  0  0  0  0  0  0  0  0
    6.5850   -0.8192   -1.0470 H   0  0  0  0  0  0  0  0  0  0  0  0
    2.3752   -0.0275    0.6618 C   0  0  0  0  0  3  0  0  0  0  0  0
    3.0329    1.1946    0.4533 C   0  0  0  0  0  0  0  0  0  0  0  0
    2.5576    2.1499    0.7202 H   0  0  0  0  0  0  0  0  0  0  0  0
    4.3267    1.2097   -0.0832 C   0  0  0  0  0  0  0  0  0  0  0  0
    4.8570    2.1577   -0.2525 H   0  0  0  0  0  0  0  0  0  0  0  0
    4.9814   -0.0010   -0.3950 C   0  0  0  0  0  0  0  0  0  0  0  0
    4.3262   -1.2241   -0.1429 C   0  0  0  0  0  0  0  0  0  0  0  0
    4.8372   -2.1779   -0.3521 H   0  0  0  0  0  0  0  0  0  0  0  0
    3.0283   -1.2368    0.3942 C   0  0  0  0  0  0  0  0  0  0  0  0
    2.5532   -2.2045    0.6122 H   0  0  0  0  0  0  0  0  0  0  0  0
  1  8  1  0  0  0  0
  2  1  1  0  0  0  0
  4  3  1  0  0  0  0
  4  5  1  0  0  0  0
  6  4  2  0  0  0  0
  7  6  1  0  0  0  0
  8  9  2  0  0  0  0
  8  6  1  0  0  0  0
  9 11  1  0  0  0  0
 10  9  1  0  0  0  0
 11 12  1  0  0  0  0
 11  3  2  0  0  0  0
M  END
