2
q = -1.0, confidence = 0.044

 44 46  0  0  0  0  0  0  0  0999 V2000
   -0.1216   -1.3207   -3.3354 O   0  0  0  0  0  0  0  0  0  0  0  0
    0.1612    0.1053   -1.4260 C   0  0  0  0  0  3  0  0  0  0  0  0
    0.9790    0.9380   -0.8140 C   0  0  0  0  0  0  0  0  0  0  0  0
    1.7492    1.7998   -0.1378 C   0  0  0  0  0  0  0  0  0  0  0  0
    2.5438    1.2685    1.0081 C   0  0  0  0  0  0  0  0  0  0  0  0
    1.9692    0.3246    1.8877 C   0  0  0  0  0  0  0  0  0  0  0  0
    2.7266   -0.2507    2.9160 C   0  0  0  0  0  0  0  0  0  0  0  0
    4.0731    0.1091    3.0886 C   0  0  0  0  0  0  0  0  0  0  0  0
    4.6543    1.0523    2.2240 C   0  0  0  0  0  0  0  0  0  0  0  0
    3.8978    1.6293    1.1936 C   0  0  0  0  0  0  0  0  0  0  0  0
    1.7766    3.2408   -0.5008 C   0  0  0  0  0  0  0  0  0  0  0  0
    2.1723    4.2219    0.4377 C   0  0  0  0  0  0  0  0  0  0  0  0
    2.1309    5.5849    0.1097 C   0  0  0  0  0  0  0  0  0  0  0  0
    1.6900    5.9983   -1.1569 C   0  0  0  0  0  0  0  0  0  0  0  0
    1.2843    5.0327   -2.0947 C   0  0  0  0  0  0  0  0  0  0  0  0
    1.3288    3.6717   -1.7727 C   0  0  0  0  0  0  0  0  0  0  0  0
    0.6324   -0.6602   -2.6288 C   0  0  0  0  0  0  0  0  0  0  0  0
    2.1467   -0.7263   -2.8716 C   0  0  0  0  0  0  0  0  0  0  0  0
    2.6821   -1.8462   -1.9990 C   0  0  0  0  0  0  0  0  0  0  0  0
    3.4284   -1.5759   -0.8366 C   0  0  0  0  0  0  0  0  0  0  0  0
    3.8066   -2.6093    0.0311 C   0  0  0  0  0  0  0  0  0  0  0  0
    3.4575   -3.9492   -0.2323 C   0  0  0  0  0  0  0  0  0  0  0  0
    2.7220   -4.2177   -1.4062 C   0  0  0  0  0  0  0  0  0  0  0  0
    2.3369   -3.1863   -2.2738 C   0  0  0  0  0  0  0  0  0  0  0  0
    3.8740   -5.0593    0.7000 C   0  0  0  0  0  0  0  0  0  0  0  0
    0.9168    0.0437    1.7472 H   0  0  0  0  0  0  0  0  0  0  0  0
    2.2578   -0.9893    3.5839 H   0  0  0  0  0  0  0  0  0  0  0  0
    4.6698   -0.3418    3.8962 H   0  0  0  0  0  0  0  0  0  0  0  0
    5.7104    1.3369    2.3486 H   0  0  0  0  0  0  0  0  0  0  0  0
    4.3631    2.3539    0.5086 H   0  0  0  0  0  0  0  0  0  0  0  0
    2.4960    3.9112    1.4415 H   0  0  0  0  0  0  0  0  0  0  0  0
    2.4409    6.3319    0.8567 H   0  0  0  0  0  0  0  0  0  0  0  0
    1.6586    7.0681   -1.4126 H   0  0  0  0  0  0  0  0  0  0  0  0
    0.9303    5.3436   -3.0894 H   0  0  0  0  0  0  0  0  0  0  0  0
    0.9976    2.9196   -2.5052 H   0  0  0  0  0  0  0  0  0  0  0  0
    2.3001   -0.9473   -3.9453 H   0  0  0  0  0  0  0  0  0  0  0  0
    2.6312    0.2333   -2.6106 H   0  0  0  0  0  0  0  0  0  0  0  0
    3.6995   -0.5395   -0.5902 H   0  0  0  0  0  0  0  0  0  0  0  0
    4.3707   -2.3598    0.9437 H   0  0  0  0  0  0  0  0  0  0  0  0
    2.4331   -5.2556   -1.6376 H   0  0  0  0  0  0  0  0  0  0  0  0
    1.7300   -3.4124   -3.1644 H   0  0  0  0  0  0  0  0  0  0  0  0
    3.1796   -5.9213    0.6472 H   0  0  0  0  0  0  0  0  0  0  0  0
    4.8860   -5.4411    0.4435 H   0  0  0  0  0  0  0  0  0  0  0  0
    3.9188   -4.7119    1.7518 H   0  0  0  0  0  0  0  0  0  0  0  0
  1 17  2  0  0  0  0
  2  3  2  0  0  0  0
  3  4  2  0  0  0  0
  4  5  1  0  0  0  0
  5 10  2  0  0  0  0
  5  6  1  0  0  0  0
  6  7  2  0  0  0  0
  7  8  1  0  0  0  0
  7 27  1  0  0  0  0
  8 28  1  0  0  0  0
  9 29  1  0  0  0  0
  9  8  2  0  0  0  0
 10  9  1  0  0  0  0
 11  4  1  0  0  0  0
 11 12  1  0  0  0  0
 12 31  1  0  0  0  0
 13 12  2  0  0  0  0
 13 32  1  0  0  0  0
 14 13  1  0  0  0  0
 15 16  1  0  0  0  0
 15 14  2  0  0  0  0
 16 11  2  0  0  0  0
 17  2  1  0  0  0  0
 18 17  1  0  0  0  0
 18 37  1  0  0  0  0
 18 19  1  0  0  0  0
 19 20  1  0  0  0  0
 20 38  1  0  0  0  0
 20 21  2  0  0  0  0
 21 39  1  0  0  0  0
 22 21  1  0  0  0  0
 22 25  1  0  0  0  0
 23 22  2  0  0  0  0
 24 19  2  0  0  0  0
 24 23  1  0  0  0  0
 25 44  1  0  0  0  0
 26  6  1  0  0  0  0
 30 10  1  0  0  0  0
 33 14  1  0  0  0  0
 34 15  1  0  0  0  0
 35 16  1  0  0  0  0
 36 18  1  0  0  0  0
 40 23  1  0  0  0  0
 41 24  1  0  0  0  0
 42 25  1  0  0  0  0
 43 25  1  0  0  0  0
M  END
