1
q = -1.0, confidence = 0.004

 11 10  0  0  0  0  0  0  0  0999 V2000
   -0.2117    2.2749   -0.1454 C   0  0  0  0  0  3  0  0  0  0  0  0
    0.2584    2.6660    0.7792 H   0  0  0  0  0  0  0  0  0  0  0  0
    0.3181    2.7053   -1.0206 H   0  0  0  0  0  0  0  0  0  0  0  0
   -1.7428    4.0718   -0.2416 O   0  0  0  0  0  0  0  0  0  0  0  0
   -1.6819    2.6546   -0.1866 C   0  0  0  0  0  0  0  0  0  0  0  0
   -2.1938    2.2022   -1.0704 H   0  0  0  0  0  0  0  0  0  0  0  0
   -2.2070    2.2747    0.7226 H   0  0  0  0  0  0  0  0  0  0  0  0
   -3.0641    4.5512   -0.2522 C   0  0  0  0  0  0  0  0  0  0  0  0
   -3.0233    5.6577   -0.2945 H   0  0  0  0  0  0  0  0  0  0  0  0
   -3.6314    4.2512    0.6639 H   0  0  0  0  0  0  0  0  0  0  0  0
   -3.6416    4.1832   -1.1369 H   0  0  0  0  0  0  0  0  0  0  0  0
  1  2  1  0  0  0  0
  3  1  1  0  0  0  0
  4  5  1  0  0  0  0
  5  1  1  0  0  0  0
  5  7  1  0  0  0  0
  6  5  1  0  0  0  0
  8  4  1  0  0  0  0
  8 10  1  0  0  0  0
  9  8  1  0  0  0  0
 11  8  1  0  0  0  0
M  END
