7
q = -2.0, confidence = 0.822

 21 20  0  0  1  0  0  0  0  0999 V2000
    0.7012    3.2307    0.5523 O   0  0  0  0  0  0  0  0  0  0  0  0
    3.5615   -1.3716    0.5372 N   0  0  0  0  0  0  0  0  0  0  0  0
    1.6194    0.3746    0.3486 C   0  0  0  0  0  3  0  0  0  0  0  0
    2.6926   -0.5838    0.4633 C   0  0  0  0  0  0  0  0  0  0  0  0
    1.8555    1.4696   -0.6965 C   0  0  0  0  0  0  0  0  0  0  0  0
    0.6496    2.4014   -0.5923 C   0  0  1  0  0  0  0  0  0  0  0  0
   -0.6137    1.5151   -0.6364 C   0  0  1  0  0  3  0  0  0  0  0  0
   -0.8242    0.7046   -1.7822 C   0  0  0  0  0  3  0  0  0  0  0  0
   -1.4123    1.3465    0.5315 C   0  0  0  0  0  3  0  0  0  0  0  0
   -2.9164    1.2299    0.5587 C   0  0  0  0  0  0  0  0  0  0  0  0
    1.1613    2.7422    1.2602 H   0  0  0  0  0  0  0  0  0  0  0  0
    1.4903    0.8327    1.3539 H   0  0  0  0  0  0  0  0  0  0  0  0
    1.9222    1.0242   -1.7090 H   0  0  0  0  0  0  0  0  0  0  0  0
    2.8033    2.0281   -0.5293 H   0  0  0  0  0  0  0  0  0  0  0  0
    0.5949    3.0913   -1.4622 H   0  0  0  0  0  0  0  0  0  0  0  0
   -0.1072    0.7764   -2.6157 H   0  0  0  0  0  0  0  0  0  0  0  0
   -1.8361    0.3972   -2.0844 H   0  0  0  0  0  0  0  0  0  0  0  0
   -1.0012    1.8710    1.4115 H   0  0  0  0  0  0  0  0  0  0  0  0
   -3.3515    2.2405    0.7199 H   0  0  0  0  0  0  0  0  0  0  0  0
   -3.2710    0.5914    1.3917 H   0  0  0  0  0  0  0  0  0  0  0  0
   -3.3411    0.8325   -0.3828 H   0  0  0  0  0  0  0  0  0  0  0  0
  1 11  1  0  0  0  0
  3  4  1  0  0  0  0
  3 12  1  0  0  0  0
  4  2  3  0  0  0  0
  5  6  1  0  0  0  0
  5 14  1  0  0  0  0
  5  3  1  0  0  0  0
  6 15  1  6  0  0  0
  6  1  1  0  0  0  0
  7  8  1  1  0  0  0
  7  6  1  0  0  0  0
  7  9  1  0  0  0  0
  9 10  1  0  0  0  0
  9 18  1  0  0  0  0
 10 19  1  0  0  0  0
 10 20  1  0  0  0  0
 13  5  1  0  0  0  0
 16  8  1  0  0  0  0
 17  8  1  0  0  0  0
 21 10  1  0  0  0  0
M  END
