3
q = 0.0, confidence = 0.956

 13 12  0  0  0  0  0  0  0  0999 V2000
    0.0020    2.7389    0.8186 O   0  0  0  0  0  0  0  0  0  0  0  0
    0.0005    3.0458   -1.4285 O   0  0  0  0  0  0  0  0  0  0  0  0
   -0.0018    0.1040   -1.7496 C   0  0  0  0  0  3  0  0  0  0  0  0
   -0.0006    0.8465   -0.6697 C   0  0  0  0  0  3  0  0  0  0  0  0
   -0.0044    0.1796   -3.2259 C   0  0  0  0  0  0  0  0  0  0  0  0
    0.0008    2.2641   -0.3152 C   0  0  0  0  0  0  0  0  0  0  0  0
    0.0020    4.4656   -1.1967 C   0  0  0  0  0  0  0  0  0  0  0  0
    0.0097   -0.8095   -3.7240 H   0  0  0  0  0  0  0  0  0  0  0  0
   -0.9011    0.7381   -3.5706 H   0  0  0  0  0  0  0  0  0  0  0  0
    0.8720    0.7672   -3.5739 H   0  0  0  0  0  0  0  0  0  0  0  0
    0.0013    4.9352   -2.1954 H   0  0  0  0  0  0  0  0  0  0  0  0
   -0.8967    4.7675   -0.6233 H   0  0  0  0  0  0  0  0  0  0  0  0
    0.9026    4.7659   -0.6255 H   0  0  0  0  0  0  0  0  0  0  0  0
  2  7  1  0  0  0  0
  2  6  1  0  0  0  0
  3  4  2  0  0  0  0
  4  6  1  0  0  0  0
  5  3  1  0  0  0  0
  6  1  2  0  0  0  0
  7 13  1  0  0  0  0
  7 12  1  0  0  0  0
  8  5  1  0  0  0  0
  9  5  1  0  0  0  0
 10  5  1  0  0  0  0
 11  7  1  0  0  0  0
M  END
