2
q = 0.0, confidence = 0.984

 15 16  0  0  0  0  0  0  0  0999 V2000
    2.4897   -1.1931    1.0344 S   0  0  0  0  0  0  0  0  0  0  0  0
    1.5582   -0.7735   -0.3751 C   0  0  0  0  0  2  0  0  0  0  0  0
    2.4088    0.0647   -1.3074 C   0  0  0  0  0  0  0  0  0  0  0  0
    3.7624    0.3230   -0.7090 C   0  0  0  0  0  0  0  0  0  0  0  0
    4.8068    1.0902   -1.2439 C   0  0  0  0  0  0  0  0  0  0  0  0
    6.0101    1.2151   -0.5292 C   0  0  0  0  0  0  0  0  0  0  0  0
    6.1765    0.5782    0.7132 C   0  0  0  0  0  0  0  0  0  0  0  0
    5.1426   -0.1946    1.2666 C   0  0  0  0  0  0  0  0  0  0  0  0
    3.9512   -0.3039    0.5383 C   0  0  0  0  0  0  0  0  0  0  0  0
    1.8684    1.0098   -1.5402 H   0  0  0  0  0  0  0  0  0  0  0  0
    2.4850   -0.4659   -2.2829 H   0  0  0  0  0  0  0  0  0  0  0  0
    4.6825    1.5902   -2.2163 H   0  0  0  0  0  0  0  0  0  0  0  0
    6.8309    1.8160   -0.9472 H   0  0  0  0  0  0  0  0  0  0  0  0
    7.1248    0.6826    1.2606 H   0  0  0  0  0  0  0  0  0  0  0  0
    5.2688   -0.6942    2.2378 H   0  0  0  0  0  0  0  0  0  0  0  0
  2  1  1  0  0  0  0
  3  4  1  0  0  0  0
  3  2  1  0  0  0  0
  4  9  1  0  0  0  0
  5  4  2  0  0  0  0
  5  6  1  0  0  0  0
  6  7  2  0  0  0  0
  7 14  1  0  0  0  0
  7  8  1  0  0  0  0
  8 15  1  0  0  0  0
  9  1  1  0  0  0  0
  9  8  2  0  0  0  0
 10  3  1  0  0  0  0
 11  3  1  0  0  0  0
 12  5  1  0  0  0  0
 13  6  1  0  0  0  0
M  END
