3
q = 0.0, confidence = 1.0

 24 25  0  0  0  0  0  0  0  0999 V2000
   -2.5605    0.5837   -2.1625 S   0  0  0  0  0  0  0  0  0  0  0  0
   -2.3308    0.5872    0.3570 N   0  0  0  0  0  0  0  0  0  0  0  0
   -1.6048    0.9379   -0.7435 C   0  0  0  0  0  2  0  0  0  0  0  0
   -3.5788   -0.0105    0.1482 C   0  0  0  0  0  0  0  0  0  0  0  0
   -4.4723   -0.5093    1.1142 C   0  0  0  0  0  0  0  0  0  0  0  0
   -4.2226   -0.4742    2.1828 H   0  0  0  0  0  0  0  0  0  0  0  0
   -5.6822   -1.0656    0.6766 C   0  0  0  0  0  0  0  0  0  0  0  0
   -6.3901   -1.4621    1.4194 H   0  0  0  0  0  0  0  0  0  0  0  0
   -6.0048   -1.1267   -0.6942 C   0  0  0  0  0  0  0  0  0  0  0  0
   -6.9616   -1.5672   -1.0109 H   0  0  0  0  0  0  0  0  0  0  0  0
   -5.1164   -0.6343   -1.6618 C   0  0  0  0  0  0  0  0  0  0  0  0
   -5.3624   -0.6809   -2.7324 H   0  0  0  0  0  0  0  0  0  0  0  0
   -3.9003   -0.0849   -1.2305 C   0  0  0  0  0  0  0  0  0  0  0  0
   -1.7519    0.7631    1.7045 C   0  0  0  0  0  0  0  0  0  0  0  0
   -2.5623    1.0600    2.4001 H   0  0  0  0  0  0  0  0  0  0  0  0
   -1.0409    1.6180    1.6139 H   0  0  0  0  0  0  0  0  0  0  0  0
   -1.0458   -0.4778    2.1664 C   0  0  0  0  0  0  0  0  0  0  0  0
   -0.2183   -0.8123    1.5150 H   0  0  0  0  0  0  0  0  0  0  0  0
   -1.3527   -1.1758    3.2763 C   0  0  0  0  0  0  0  0  0  0  0  0
   -2.1875   -0.8198    3.9111 H   0  0  0  0  0  0  0  0  0  0  0  0
   -0.6359   -2.4060    3.7413 C   0  0  0  0  0  0  0  0  0  0  0  0
    0.1769   -2.6913    3.0444 H   0  0  0  0  0  0  0  0  0  0  0  0
   -1.3325   -3.2675    3.8333 H   0  0  0  0  0  0  0  0  0  0  0  0
   -0.1906   -2.2585    4.7488 H   0  0  0  0  0  0  0  0  0  0  0  0
  1 13  1  0  0  0  0
  1  3  1  0  0  0  0
  2 14  1  0  0  0  0
  3  2  1  0  0  0  0
  4  2  1  0  0  0  0
  4  5  1  0  0  0  0
  5  6  1  0  0  0  0
  7  5  2  0  0  0  0
  7  8  1  0  0  0  0
  9  7  1  0  0  0  0
 10  9  1  0  0  0  0
 11 13  1  0  0  0  0
 11  9  2  0  0  0  0
 12 11  1  0  0  0  0
 13  4  2  0  0  0  0
 14 17  1  0  0  0  0
 14 15  1  0  0  0  0
 16 14  1  0  0  0  0
 17 19  2  0  0  0  0
 18 17  1  0  0  0  0
 19 21  1  0  0  0  0
 19 20  1  0  0  0  0
 21 23  1  0  0  0  0
 21 24  1  0  0  0  0
 22 21  1  0  0  0  0
M  END
