3
q = 0.0, confidence = 1.0

 21 22  0  0  0  0  0  0  0  0999 V2000
   -1.0751   -1.6557   -0.6824 N   0  0  0  0  0  0  0  0  0  0  0  0
    0.9620   -2.4438   -0.6509 O   0  0  0  0  0  0  0  0  0  0  0  0
    0.1595   -1.5010   -0.1480 C   0  0  0  0  0  2  0  0  0  0  0  0
    0.2559   -3.3182   -1.5767 C   0  0  0  0  0  0  0  0  0  0  0  0
    0.3248   -4.3557   -1.1909 H   0  0  0  0  0  0  0  0  0  0  0  0
    0.7664   -3.2655   -2.5601 H   0  0  0  0  0  0  0  0  0  0  0  0
   -1.1434   -2.7648   -1.5841 C   0  0  0  0  0  0  0  0  0  0  0  0
   -2.2373   -3.1770   -2.2451 C   0  0  0  0  0  0  0  0  0  0  0  0
   -3.2019   -2.6630   -2.1349 H   0  0  0  0  0  0  0  0  0  0  0  0
   -2.1826   -4.0498   -2.9095 H   0  0  0  0  0  0  0  0  0  0  0  0
   -2.2297   -0.8401   -0.4295 C   0  0  0  0  0  0  0  0  0  0  0  0
   -2.6280    0.0892   -1.4058 C   0  0  0  0  0  0  0  0  0  0  0  0
   -2.0288    0.2087   -2.3201 H   0  0  0  0  0  0  0  0  0  0  0  0
   -3.7870    0.8487   -1.1977 C   0  0  0  0  0  0  0  0  0  0  0  0
   -4.1039    1.5786   -1.9571 H   0  0  0  0  0  0  0  0  0  0  0  0
   -4.5423    0.6757   -0.0252 C   0  0  0  0  0  0  0  0  0  0  0  0
   -5.4549    1.2692    0.1329 H   0  0  0  0  0  0  0  0  0  0  0  0
   -4.1424   -0.2641    0.9379 C   0  0  0  0  0  0  0  0  0  0  0  0
   -4.7384   -0.4103    1.8507 H   0  0  0  0  0  0  0  0  0  0  0  0
   -2.9890   -1.0377    0.7341 C   0  0  0  0  0  0  0  0  0  0  0  0
   -2.6786   -1.7902    1.4715 H   0  0  0  0  0  0  0  0  0  0  0  0
  1 11  1  0  0  0  0
  1  3  1  0  0  0  0
  2  3  1  0  0  0  0
  4  5  1  0  0  0  0
  4  2  1  0  0  0  0
  6  4  1  0  0  0  0
  7  4  1  0  0  0  0
  7  1  1  0  0  0  0
  8  9  1  0  0  0  0
  8  7  2  0  0  0  0
 10  8  1  0  0  0  0
 11 20  1  0  0  0  0
 12 14  1  0  0  0  0
 12 11  2  0  0  0  0
 13 12  1  0  0  0  0
 14 16  2  0  0  0  0
 15 14  1  0  0  0  0
 16 17  1  0  0  0  0
 16 18  1  0  0  0  0
 18 19  1  0  0  0  0
 20 18  2  0  0  0  0
 20 21  1  0  0  0  0
M  END
