10
q = 0.0, confidence = 1.0

 49 51  0  0  1  0  0  0  0  0999 V2000
    1.9754    1.3918    0.0020 C   0  0  0  0  0  0  0  0  0  0  0  0
    2.1590    2.2328   -1.1339 C   0  0  0  0  0  0  0  0  0  0  0  0
    1.0175    2.7756   -1.7546 C   0  0  0  0  0  0  0  0  0  0  0  0
    1.1549    3.4114   -2.6432 H   0  0  0  0  0  0  0  0  0  0  0  0
   -0.2734    2.5321   -1.2725 C   0  0  0  0  0  0  0  0  0  0  0  0
   -1.1524    2.9631   -1.7703 H   0  0  0  0  0  0  0  0  0  0  0  0
   -0.4446    1.7308   -0.1276 C   0  0  0  0  0  0  0  0  0  0  0  0
    0.6801    1.1652    0.4984 C   0  0  0  0  0  0  0  0  0  0  0  0
    0.5143    0.5349    1.3836 H   0  0  0  0  0  0  0  0  0  0  0  0
    3.1513    0.7247    0.6353 C   0  0  0  0  0  2  0  0  0  0  0  0
    5.0087    1.0443    2.2247 C   0  0  0  0  0  0  0  0  0  0  0  0
    5.5387    0.2882    1.6273 H   0  0  0  0  0  0  0  0  0  0  0  0
    4.7635    0.6156    3.2178 H   0  0  0  0  0  0  0  0  0  0  0  0
    5.6677    1.9220    2.3710 H   0  0  0  0  0  0  0  0  0  0  0  0
    3.3440    2.8012    1.9827 C   0  0  0  0  0  0  0  0  0  0  0  0
    4.0867    3.5707    1.6861 H   0  0  0  0  0  0  0  0  0  0  0  0
    3.2637    2.8066    3.0888 H   0  0  0  0  0  0  0  0  0  0  0  0
    2.3627    3.0489    1.5465 H   0  0  0  0  0  0  0  0  0  0  0  0
    3.5379    2.5333   -1.6581 C   0  0  0  0  0  0  0  0  0  0  0  0
    4.1460    3.0912   -0.9152 H   0  0  0  0  0  0  0  0  0  0  0  0
    3.4947    3.1400   -2.5820 H   0  0  0  0  0  0  0  0  0  0  0  0
    4.0989    1.6029   -1.8793 H   0  0  0  0  0  0  0  0  0  0  0  0
   -1.7827    1.4429    0.4697 C   0  0  0  0  0  0  0  0  0  0  0  0
   -4.1410    1.6632    0.1476 C   0  0  1  0  0  0  0  0  0  0  0  0
   -4.1156    1.5997    1.2547 H   0  0  0  0  0  0  0  0  0  0  0  0
   -4.9996    2.8373   -0.3155 C   0  0  0  0  0  0  0  0  0  0  0  0
   -4.6374    3.7847    0.1300 H   0  0  0  0  0  0  0  0  0  0  0  0
   -6.0540    2.6821   -0.0167 H   0  0  0  0  0  0  0  0  0  0  0  0
   -4.9661    2.9239   -1.4194 H   0  0  0  0  0  0  0  0  0  0  0  0
   -4.6152    0.3302   -0.4114 C   0  0  0  0  0  0  0  0  0  0  0  0
   -4.0205   -0.2031   -1.5497 C   0  0  0  0  0  0  0  0  0  0  0  0
   -3.1752    0.3297   -2.0088 H   0  0  0  0  0  0  0  0  0  0  0  0
   -4.4735   -1.4214   -2.1180 C   0  0  0  0  0  0  0  0  0  0  0  0
   -3.9745   -1.8182   -3.0149 H   0  0  0  0  0  0  0  0  0  0  0  0
   -5.5341   -2.1043   -1.5480 C   0  0  0  0  0  0  0  0  0  0  0  0
   -5.8946   -3.0493   -1.9832 H   0  0  0  0  0  0  0  0  0  0  0  0
   -7.2693   -2.2890    0.2221 C   0  0  0  0  0  0  0  0  0  0  0  0
   -7.6108   -3.2302   -0.2366 H   0  0  0  0  0  0  0  0  0  0  0  0
   -7.8891   -1.7962    1.3596 C   0  0  0  0  0  0  0  0  0  0  0  0
   -8.7300   -2.3420    1.8136 H   0  0  0  0  0  0  0  0  0  0  0  0
   -7.4328   -0.5862    1.9444 C   0  0  0  0  0  0  0  0  0  0  0  0
   -7.9191   -0.2012    2.8535 H   0  0  0  0  0  0  0  0  0  0  0  0
   -6.3738    0.1118    1.3817 C   0  0  0  0  0  0  0  0  0  0  0  0
   -6.0357    1.0418    1.8601 H   0  0  0  0  0  0  0  0  0  0  0  0
   -5.7146   -0.3606    0.2059 C   0  0  0  0  0  0  0  0  0  0  0  0
   -6.1778   -1.5976   -0.3815 C   0  0  0  0  0  0  0  0  0  0  0  0
    3.7902    1.4726    1.5356 N   0  0  0  0  0  0  0  0  0  0  0  0
   -1.9565    0.8347    1.5113 O   0  0  0  0  0  0  0  0  0  0  0  0
   -2.7920    1.9465   -0.2930 O   0  0  0  0  0  0  0  0  0  0  0  0
  1  8  1  0  0  0  0
  1 10  1  0  0  0  0
  2  1  2  0  0  0  0
  3  5  2  0  0  0  0
  3  2  1  0  0  0  0
  4  3  1  0  0  0  0
  5  7  1  0  0  0  0
  6  5  1  0  0  0  0
  7 23  1  0  0  0  0
  7  8  2  0  0  0  0
  8  9  1  0  0  0  0
 10 47  1  0  0  0  0
 11 14  1  0  0  0  0
 11 13  1  0  0  0  0
 12 11  1  0  0  0  0
 15 17  1  0  0  0  0
 16 15  1  0  0  0  0
 18 15  1  0  0  0  0
 19  2  1  0  0  0  0
 19 20  1  0  0  0  0
 21 19  1  0  0  0  0
 22 19  1  0  0  0  0
 23 48  2  0  0  0  0
 24 25  1  1  0  0  0
 26 28  1  0  0  0  0
 26 27  1  0  0  0  0
 26 24  1  0  0  0  0
 29 26  1  0  0  0  0
 30 24  1  0  0  0  0
 30 45  1  0  0  0  0
 31 30  2  0  0  0  0
 32 31  1  0  0  0  0
 33 31  1  0  0  0  0
 33 35  2  0  0  0  0
 34 33  1  0  0  0  0
 35 46  1  0  0  0  0
 36 35  1  0  0  0  0
 37 39  1  0  0  0  0
 38 37  1  0  0  0  0
 39 40  1  0  0  0  0
 39 41  2  0  0  0  0
 41 42  1  0  0  0  0
 43 44  1  0  0  0  0
 43 41  1  0  0  0  0
 45 43  2  0  0  0  0
 46 45  1  0  0  0  0
 46 37  2  0  0  0  0
 47 15  1  0  0  0  0
 47 11  1  0  0  0  0
 49 24  1  0  0  0  0
 49 23  1  0  0  0  0
M  END
