1
q = 0.0, confidence = 0.984

 31 33  0  0  0  0  0  0  0  0999 V2000
    0.9423   -0.7189    0.0828 C   0  0  0  0  0  3  0  0  0  0  0  0
    1.8408   -1.6170   -0.5129 C   0  0  0  0  0  0  0  0  0  0  0  0
    1.6058   -2.9683   -1.0888 C   0  0  0  0  0  0  0  0  0  0  0  0
    0.5379   -3.2212   -0.9573 H   0  0  0  0  0  0  0  0  0  0  0  0
    2.2026   -3.7453   -0.5626 H   0  0  0  0  0  0  0  0  0  0  0  0
    1.8539   -3.0293   -2.1710 H   0  0  0  0  0  0  0  0  0  0  0  0
    4.3330   -1.5849   -0.8355 C   0  0  0  0  0  3  0  0  0  0  0  0
    4.3011   -2.5578   -1.3413 H   0  0  0  0  0  0  0  0  0  0  0  0
    5.4902   -0.8581   -0.6188 C   0  0  0  0  0  0  0  0  0  0  0  0
    6.4466   -1.2702   -0.9683 H   0  0  0  0  0  0  0  0  0  0  0  0
    5.4375    0.3968    0.0396 C   0  0  0  0  0  0  0  0  0  0  0  0
    6.3586    0.9728    0.2041 H   0  0  0  0  0  0  0  0  0  0  0  0
    4.2123    0.9014    0.4786 C   0  0  0  0  0  0  0  0  0  0  0  0
    4.1354    1.8711    0.9875 H   0  0  0  0  0  0  0  0  0  0  0  0
    3.0535    0.1424    0.2538 C   0  0  0  0  0  0  0  0  0  0  0  0
    1.2194    1.4526    1.3356 C   0  0  0  0  0  0  0  0  0  0  0  0
    2.0748    1.9227    1.8642 H   0  0  0  0  0  0  0  0  0  0  0  0
    0.5525    1.0034    2.1018 H   0  0  0  0  0  0  0  0  0  0  0  0
    0.4739    2.4765    0.5066 C   0  0  0  0  0  0  0  0  0  0  0  0
   -0.7186    3.0336    1.0017 C   0  0  0  0  0  0  0  0  0  0  0  0
   -1.1119    2.6847    1.9690 H   0  0  0  0  0  0  0  0  0  0  0  0
   -1.4143    4.0014    0.2616 C   0  0  0  0  0  0  0  0  0  0  0  0
   -2.3497    4.4245    0.6584 H   0  0  0  0  0  0  0  0  0  0  0  0
   -0.9320    4.4121   -0.9912 C   0  0  0  0  0  0  0  0  0  0  0  0
   -1.4834    5.1626   -1.5777 H   0  0  0  0  0  0  0  0  0  0  0  0
    0.2557    3.8565   -1.4946 C   0  0  0  0  0  0  0  0  0  0  0  0
    0.6379    4.1701   -2.4780 H   0  0  0  0  0  0  0  0  0  0  0  0
    0.9560    2.8980   -0.7473 C   0  0  0  0  0  0  0  0  0  0  0  0
    1.8804    2.4574   -1.1537 H   0  0  0  0  0  0  0  0  0  0  0  0
    1.7398    0.3362    0.5521 N   0  0  0  0  0  0  0  0  0  0  0  0
    3.1240   -1.0852   -0.4084 N   0  0  0  0  0  0  0  0  0  0  0  0
  1 30  1  0  0  0  0
  2 31  1  0  0  0  0
  2  1  2  0  0  0  0
  3  4  1  0  0  0  0
  3  5  1  0  0  0  0
  3  2  1  0  0  0  0
  6  3  1  0  0  0  0
  7  9  1  0  0  0  0
  7 31  1  0  0  0  0
  8  7  1  0  0  0  0
  9 11  2  0  0  0  0
 10  9  1  0  0  0  0
 11 12  1  0  0  0  0
 11 13  1  0  0  0  0
 13 14  1  0  0  0  0
 15 13  2  0  0  0  0
 15 30  1  0  0  0  0
 16 17  1  0  0  0  0
 16 18  1  0  0  0  0
 19 20  1  0  0  0  0
 19 16  1  0  0  0  0
 20 21  1  0  0  0  0
 22 23  1  0  0  0  0
 22 20  2  0  0  0  0
 24 22  1  0  0  0  0
 25 24  1  0  0  0  0
 26 24  2  0  0  0  0
 26 28  1  0  0  0  0
 27 26  1  0  0  0  0
 28 19  2  0  0  0  0
 29 28  1  0  0  0  0
 30 16  1  0  0  0  0
 31 15  1  0  0  0  0
M  END
