20
q = -1.0, confidence = 0.0

 27 28  0  0  0  0  0  0  0  0999 V2000
   -1.0327    3.8688    0.1424 S   0  0  0  0  0  0  0  0  0  0  0  0
   -1.7513    1.0989   -0.5274 N   0  0  0  0  0  2  0  0  0  0  0  0
   -2.5565    0.0368   -0.9235 C   0  0  0  0  0  0  0  0  0  0  0  0
   -2.1837   -0.9981   -1.8316 C   0  0  0  0  0  0  0  0  0  0  0  0
   -3.1133   -2.0208   -2.1050 C   0  0  0  0  0  0  0  0  0  0  0  0
   -2.8213   -2.8206   -2.8044 H   0  0  0  0  0  0  0  0  0  0  0  0
   -4.3875   -2.0345   -1.5243 C   0  0  0  0  0  0  0  0  0  0  0  0
   -5.0902   -2.8511   -1.7482 H   0  0  0  0  0  0  0  0  0  0  0  0
   -4.7752   -0.9736   -0.6925 C   0  0  0  0  0  0  0  0  0  0  0  0
   -5.7922   -0.9453   -0.2704 H   0  0  0  0  0  0  0  0  0  0  0  0
   -3.8921    0.0792   -0.4055 C   0  0  0  0  0  0  0  0  0  0  0  0
   -0.8537   -1.0024   -2.5335 C   0  0  0  0  0  0  0  0  0  0  0  0
   -0.8977   -1.6108   -3.4582 H   0  0  0  0  0  0  0  0  0  0  0  0
   -0.0513   -1.4243   -1.8857 H   0  0  0  0  0  0  0  0  0  0  0  0
   -0.5402    0.0261   -2.8014 H   0  0  0  0  0  0  0  0  0  0  0  0
   -4.3291    1.2595    0.4230 C   0  0  0  0  0  0  0  0  0  0  0  0
   -4.0876    2.2076   -0.0996 H   0  0  0  0  0  0  0  0  0  0  0  0
   -3.7944    1.3181    1.3934 H   0  0  0  0  0  0  0  0  0  0  0  0
   -5.4161    1.2212    0.6302 H   0  0  0  0  0  0  0  0  0  0  0  0
   -0.5690    1.1204   -0.0056 C   0  0  0  0  0  2  0  0  0  0  0  0
   -0.1102    2.4173    0.5047 C   0  0  0  0  0  0  0  0  0  0  0  0
    0.9869    2.7217    1.3076 C   0  0  0  0  0  0  0  0  0  0  0  0
    1.6747    1.9410    1.6626 H   0  0  0  0  0  0  0  0  0  0  0  0
    1.0909    4.1095    1.6150 C   0  0  0  0  0  0  0  0  0  0  0  0
    1.8837    4.5469    2.2377 H   0  0  0  0  0  0  0  0  0  0  0  0
    0.0725    4.8528    1.0408 C   0  0  0  0  0  0  0  0  0  0  0  0
   -0.0870    5.9369    1.1067 H   0  0  0  0  0  0  0  0  0  0  0  0
  1 21  1  0  0  0  0
  1 26  1  0  0  0  0
  2 20  1  0  0  0  0
  3  2  1  0  0  0  0
  3 11  1  0  0  0  0
  4  3  2  0  0  0  0
  5  4  1  0  0  0  0
  5  7  2  0  0  0  0
  6  5  1  0  0  0  0
  7  9  1  0  0  0  0
  8  7  1  0  0  0  0
  9 11  2  0  0  0  0
  9 10  1  0  0  0  0
 11 16  1  0  0  0  0
 12 14  1  0  0  0  0
 12  4  1  0  0  0  0
 13 12  1  0  0  0  0
 15 12  1  0  0  0  0
 16 19  1  0  0  0  0
 16 18  1  0  0  0  0
 17 16  1  0  0  0  0
 20 21  1  0  0  0  0
 21 22  2  0  0  0  0
 22 24  1  0  0  0  0
 22 23  1  0  0  0  0
 24 25  1  0  0  0  0
 26 27  1  0  0  0  0
 26 24  2  0  0  0  0
M  END
