5
q = -1.0, confidence = 0.0

 16 17  0  0  0  0  0  0  0  0999 V2000
    0.0674   -1.7629    2.0631 N   0  0  0  0  0  0  0  0  0  0  0  0
    1.1661   -2.5070    2.3952 N   0  0  0  0  0  0  0  0  0  0  0  0
    2.1519   -2.2686    1.5949 N   0  0  0  0  0  0  0  0  0  0  0  0
    1.6955   -1.3421    0.6916 N   0  0  0  0  0  0  0  0  0  0  0  0
    0.3889   -1.0211    0.9947 C   0  0  0  0  0  3  0  0  0  0  0  0
    2.5539   -0.8290   -0.3125 C   0  0  0  0  0  0  0  0  0  0  0  0
    2.0231   -0.2934   -1.5019 C   0  0  0  0  0  0  0  0  0  0  0  0
    0.9321   -0.3018   -1.6615 H   0  0  0  0  0  0  0  0  0  0  0  0
    2.8871    0.2577   -2.4595 C   0  0  0  0  0  0  0  0  0  0  0  0
    2.4653    0.6792   -3.3845 H   0  0  0  0  0  0  0  0  0  0  0  0
    4.2753    0.2594   -2.2498 C   0  0  0  0  0  0  0  0  0  0  0  0
    4.9492    0.6893   -3.0056 H   0  0  0  0  0  0  0  0  0  0  0  0
    4.7985   -0.3008   -1.0722 C   0  0  0  0  0  0  0  0  0  0  0  0
    5.8857   -0.3117   -0.9024 H   0  0  0  0  0  0  0  0  0  0  0  0
    3.9470   -0.8421   -0.1002 C   0  0  0  0  0  0  0  0  0  0  0  0
    4.3355   -1.2811    0.8284 H   0  0  0  0  0  0  0  0  0  0  0  0
  1  2  1  0  0  0  0
  3  2  2  0  0  0  0
  4  5  1  0  0  0  0
  4  3  1  0  0  0  0
  5  1  2  0  0  0  0
  6 15  1  0  0  0  0
  6  4  1  0  0  0  0
  7  6  2  0  0  0  0
  8  7  1  0  0  0  0
  9 11  2  0  0  0  0
  9  7  1  0  0  0  0
 10  9  1  0  0  0  0
 11 13  1  0  0  0  0
 12 11  1  0  0  0  0
 13 14  1  0  0  0  0
 13 15  2  0  0  0  0
 15 16  1  0  0  0  0
M  END
