15
q = -1.0, confidence = 0.02

 66 68  0  0  1  0  0  0  0  0999 V2000
    2.7313   -1.3732   -2.1792 O   0  0  0  0  0  0  0  0  0  0  0  0
   -4.0877    2.6542    0.9405 O   0  0  0  0  0  0  0  0  0  0  0  0
   -5.1901    1.9523   -0.8980 O   0  0  0  0  0  0  0  0  0  0  0  0
    4.3632    1.3757    1.5826 O   0  0  0  0  0  0  0  0  0  0  0  0
   -2.2841   -0.7619   -1.7517 C   0  0  0  0  0  0  0  0  0  0  0  0
   -3.7779   -0.5367   -1.9899 C   0  0  0  0  0  0  0  0  0  0  0  0
   -4.5762   -0.6694   -0.6945 C   0  0  0  0  0  0  0  0  0  0  0  0
   -4.0920    0.2610    0.4398 C   0  0  2  0  0  0  0  0  0  0  0  0
   -2.5550    0.0310    0.6567 C   0  0  2  0  0  0  0  0  0  0  0  0
   -1.9290    0.8364    1.8032 C   0  0  0  0  0  0  0  0  0  0  0  0
   -0.5361    0.3165    2.1654 C   0  0  0  0  0  0  0  0  0  0  0  0
    0.3328   -0.0307    0.9719 C   0  0  1  0  0  3  0  0  0  0  0  0
   -0.2293   -0.2064   -0.3254 C   0  0  1  0  0  3  0  0  0  0  0  0
   -1.6949    0.1481   -0.6455 C   0  0  1  0  0  0  0  0  0  0  0  0
    0.6300   -0.6530   -1.3884 C   0  0  0  0  0  3  0  0  0  0  0  0
    2.0166   -0.9032   -1.1271 C   0  0  1  0  0  3  0  0  0  0  0  0
    2.4832   -0.7760    0.2041 C   0  0  0  0  0  3  0  0  0  0  0  0
    1.8209    0.2744    1.0743 C   0  0  1  0  0  0  0  0  0  0  0  0
   -4.8617   -0.1148    1.7294 C   0  0  0  0  0  0  0  0  0  0  0  0
   -4.4192    1.7426    0.2030 C   0  0  0  0  0  0  0  0  0  0  0  0
   -1.6248    1.6013   -1.1843 C   0  0  0  0  0  0  0  0  0  0  0  0
    4.0597   -1.8197   -1.9399 C   0  0  0  0  0  0  0  0  0  0  0  0
   -5.5646    3.3160   -1.1293 C   0  0  0  0  0  0  0  0  0  0  0  0
    2.1734    1.7233    0.6902 C   0  0  0  0  0  0  0  0  0  0  0  0
    3.6671    2.0116    0.8033 C   0  0  0  0  0  0  0  0  0  0  0  0
    4.2746    3.0828   -0.1312 C   0  0  0  0  0  0  0  0  0  0  0  0
    3.3670    4.3242   -0.2224 C   0  0  0  0  0  0  0  0  0  0  0  0
    4.4011    2.4173   -1.5231 C   0  0  0  0  0  0  0  0  0  0  0  0
    5.6659    3.4754    0.3839 C   0  0  0  0  0  0  0  0  0  0  0  0
   -1.7364   -0.5994   -2.7025 H   0  0  0  0  0  0  0  0  0  0  0  0
   -2.1184   -1.8208   -1.4728 H   0  0  0  0  0  0  0  0  0  0  0  0
   -4.1439   -1.2769   -2.7315 H   0  0  0  0  0  0  0  0  0  0  0  0
   -3.9606    0.4609   -2.4379 H   0  0  0  0  0  0  0  0  0  0  0  0
   -4.4784   -1.7111   -0.3178 H   0  0  0  0  0  0  0  0  0  0  0  0
   -5.6544   -0.4947   -0.8801 H   0  0  0  0  0  0  0  0  0  0  0  0
   -2.5036   -1.0411    0.9478 H   0  0  0  0  0  0  0  0  0  0  0  0
   -2.5751    0.7923    2.7002 H   0  0  0  0  0  0  0  0  0  0  0  0
   -1.8863    1.9078    1.5299 H   0  0  0  0  0  0  0  0  0  0  0  0
   -0.6221   -0.5740    2.8239 H   0  0  0  0  0  0  0  0  0  0  0  0
   -0.0054    1.0755    2.7797 H   0  0  0  0  0  0  0  0  0  0  0  0
    0.2634   -0.8040   -2.4096 H   0  0  0  0  0  0  0  0  0  0  0  0
    3.4987   -1.1039    0.4606 H   0  0  0  0  0  0  0  0  0  0  0  0
    2.1538    0.1056    2.1169 H   0  0  0  0  0  0  0  0  0  0  0  0
   -5.9543   -0.0967    1.5416 H   0  0  0  0  0  0  0  0  0  0  0  0
   -4.5860   -1.1407    2.0474 H   0  0  0  0  0  0  0  0  0  0  0  0
   -4.6480    0.5868    2.5568 H   0  0  0  0  0  0  0  0  0  0  0  0
   -1.2654    2.3146   -0.4192 H   0  0  0  0  0  0  0  0  0  0  0  0
   -0.9279    1.6493   -2.0450 H   0  0  0  0  0  0  0  0  0  0  0  0
   -2.6117    1.9511   -1.5419 H   0  0  0  0  0  0  0  0  0  0  0  0
    4.4724   -2.0989   -2.9263 H   0  0  0  0  0  0  0  0  0  0  0  0
    4.6870   -1.0191   -1.4910 H   0  0  0  0  0  0  0  0  0  0  0  0
    4.0735   -2.7115   -1.2774 H   0  0  0  0  0  0  0  0  0  0  0  0
   -6.2011    3.3100   -2.0319 H   0  0  0  0  0  0  0  0  0  0  0  0
   -6.1197    3.7253   -0.2618 H   0  0  0  0  0  0  0  0  0  0  0  0
   -4.6670    3.9469   -1.2917 H   0  0  0  0  0  0  0  0  0  0  0  0
    1.6513    2.4351    1.3701 H   0  0  0  0  0  0  0  0  0  0  0  0
    1.7978    1.9511   -0.3280 H   0  0  0  0  0  0  0  0  0  0  0  0
    2.3735    4.0923   -0.6544 H   0  0  0  0  0  0  0  0  0  0  0  0
    3.2103    4.7843    0.7747 H   0  0  0  0  0  0  0  0  0  0  0  0
    3.8398    5.0880   -0.8733 H   0  0  0  0  0  0  0  0  0  0  0  0
    3.4230    2.0736   -1.9167 H   0  0  0  0  0  0  0  0  0  0  0  0
    4.8223    3.1423   -2.2498 H   0  0  0  0  0  0  0  0  0  0  0  0
    5.0810    1.5421   -1.4826 H   0  0  0  0  0  0  0  0  0  0  0  0
    6.1544    4.1780   -0.3209 H   0  0  0  0  0  0  0  0  0  0  0  0
    5.5991    3.9674    1.3748 H   0  0  0  0  0  0  0  0  0  0  0  0
    6.3079    2.5824    0.5039 H   0  0  0  0  0  0  0  0  0  0  0  0
  1 22  1  0  0  0  0
  3 20  1  0  0  0  0
  5 31  1  0  0  0  0
  5 14  1  0  0  0  0
  6  5  1  0  0  0  0
  6  7  1  0  0  0  0
  7 34  1  0  0  0  0
  7  8  1  0  0  0  0
  8 20  1  6  0  0  0
  8  9  1  0  0  0  0
  8 19  1  0  0  0  0
  9 36  1  1  0  0  0
  9 10  1  0  0  0  0
 10 11  1  0  0  0  0
 10 37  1  0  0  0  0
 11 40  1  0  0  0  0
 11 39  1  0  0  0  0
 12 18  1  0  0  0  0
 12 11  1  6  0  0  0
 13 15  1  6  0  0  0
 13 12  1  0  0  0  0
 14 21  1  6  0  0  0
 14 13  1  0  0  0  0
 14  9  1  0  0  0  0
 15 16  1  0  0  0  0
 16  1  1  1  0  0  0
 16 17  1  0  0  0  0
 17 42  1  0  0  0  0
 17 18  1  0  0  0  0
 18 43  1  1  0  0  0
 19 45  1  0  0  0  0
 19 46  1  0  0  0  0
 20  2  2  0  0  0  0
 21 47  1  0  0  0  0
 22 51  1  0  0  0  0
 22 52  1  0  0  0  0
 23  3  1  0  0  0  0
 23 54  1  0  0  0  0
 24 25  1  0  0  0  0
 24 18  1  0  0  0  0
 24 56  1  0  0  0  0
 25  4  2  0  0  0  0
 26 29  1  0  0  0  0
 26 25  1  0  0  0  0
 27 26  1  0  0  0  0
 27 59  1  0  0  0  0
 28 63  1  0  0  0  0
 28 26  1  0  0  0  0
 29 66  1  0  0  0  0
 29 65  1  0  0  0  0
 30  5  1  0  0  0  0
 32  6  1  0  0  0  0
 33  6  1  0  0  0  0
 35  7  1  0  0  0  0
 38 10  1  0  0  0  0
 41 15  1  0  0  0  0
 44 19  1  0  0  0  0
 48 21  1  0  0  0  0
 49 21  1  0  0  0  0
 50 22  1  0  0  0  0
 53 23  1  0  0  0  0
 55 23  1  0  0  0  0
 57 24  1  0  0  0  0
 58 27  1  0  0  0  0
 60 27  1  0  0  0  0
 61 28  1  0  0  0  0
 62 28  1  0  0  0  0
 64 29  1  0  0  0  0
M  END
