3
q = 0.0, confidence = 0.978

 40 41  0  0  1  0  0  0  0  0999 V2000
    0.2704    1.6026    0.4011 C   0  0  2  0  0  3  0  0  0  0  0  0
    1.2058    1.8286   -0.6402 C   0  0  2  0  0  3  0  0  0  0  0  0
    1.2352    1.0163   -1.8353 C   0  0  0  0  0  3  0  0  0  0  0  0
    0.5978   -0.2179   -2.1145 C   0  0  0  0  0  0  0  0  0  0  0  0
   -0.2887   -1.0043   -1.2915 C   0  0  0  0  0  0  0  0  0  0  0  0
   -1.7461   -1.3371    0.7621 C   0  0  0  0  0  0  0  0  0  0  0  0
   -3.1086   -1.2016    0.7135 C   0  0  0  0  0  3  0  0  0  0  0  0
   -3.9056   -0.2448   -0.0332 C   0  0  0  0  0  0  0  0  0  0  0  0
   -3.4829    1.0166   -0.3927 C   0  0  0  0  0  0  0  0  0  0  0  0
   -2.2102    1.6620   -0.1353 C   0  0  0  0  0  0  0  0  0  0  0  0
   -1.0372    0.9739    0.0569 C   0  0  0  0  0  0  0  0  0  0  0  0
   -0.8953   -0.4913   -0.1248 C   0  0  0  0  0  0  0  0  0  0  0  0
    0.3824    2.3105    1.7308 C   0  0  0  0  0  0  0  0  0  0  0  0
    2.2417    2.9241   -0.5194 C   0  0  0  0  0  0  0  0  0  0  0  0
   -0.5931   -2.4133   -1.7494 C   0  0  0  0  0  0  0  0  0  0  0  0
   -1.1081   -2.3437    1.6818 C   0  0  0  0  0  0  0  0  0  0  0  0
   -5.3297   -0.6634   -0.3185 C   0  0  0  0  0  0  0  0  0  0  0  0
   -2.2203    3.1757   -0.1190 C   0  0  0  0  0  0  0  0  0  0  0  0
    1.9926    1.3126   -2.5781 H   0  0  0  0  0  0  0  0  0  0  0  0
    0.9480   -0.7149   -3.0324 H   0  0  0  0  0  0  0  0  0  0  0  0
   -3.6897   -1.9327    1.3048 H   0  0  0  0  0  0  0  0  0  0  0  0
   -4.2452    1.6669   -0.8571 H   0  0  0  0  0  0  0  0  0  0  0  0
    1.4309    2.4077    2.0700 H   0  0  0  0  0  0  0  0  0  0  0  0
   -0.1756    1.7530    2.5071 H   0  0  0  0  0  0  0  0  0  0  0  0
   -0.0570    3.3301    1.6808 H   0  0  0  0  0  0  0  0  0  0  0  0
    3.0461    2.8091   -1.2695 H   0  0  0  0  0  0  0  0  0  0  0  0
    2.7171    2.9356    0.4788 H   0  0  0  0  0  0  0  0  0  0  0  0
    1.7641    3.9161   -0.6682 H   0  0  0  0  0  0  0  0  0  0  0  0
    0.1748   -2.7909   -2.4500 H   0  0  0  0  0  0  0  0  0  0  0  0
   -0.6608   -3.1232   -0.9061 H   0  0  0  0  0  0  0  0  0  0  0  0
   -1.5771   -2.4233   -2.2634 H   0  0  0  0  0  0  0  0  0  0  0  0
   -1.8582   -3.0529    2.0826 H   0  0  0  0  0  0  0  0  0  0  0  0
   -0.6278   -1.8355    2.5427 H   0  0  0  0  0  0  0  0  0  0  0  0
   -0.3001   -2.9140    1.1807 H   0  0  0  0  0  0  0  0  0  0  0  0
   -5.3599   -1.5698   -0.9607 H   0  0  0  0  0  0  0  0  0  0  0  0
   -5.9021    0.1361   -0.8268 H   0  0  0  0  0  0  0  0  0  0  0  0
   -5.8646   -0.9276    0.6192 H   0  0  0  0  0  0  0  0  0  0  0  0
   -1.2264    3.6021   -0.3557 H   0  0  0  0  0  0  0  0  0  0  0  0
   -2.9433    3.5622   -0.8656 H   0  0  0  0  0  0  0  0  0  0  0  0
   -2.5373    3.5759    0.8681 H   0  0  0  0  0  0  0  0  0  0  0  0
  1 13  1  6  0  0  0
  2 14  1  1  0  0  0
  2  1  1  0  0  0  0
  3  2  1  0  0  0  0
  4  3  1  0  0  0  0
  4  5  2  0  0  0  0
  5 12  1  0  0  0  0
  6 16  1  0  0  0  0
  7  6  1  0  0  0  0
  7 21  1  0  0  0  0
  8  7  1  0  0  0  0
  9 10  1  0  0  0  0
  9  8  2  0  0  0  0
 10 18  1  0  0  0  0
 10 11  2  0  0  0  0
 11  1  1  0  0  0  0
 12 11  1  0  0  0  0
 12  6  2  0  0  0  0
 13 23  1  0  0  0  0
 13 24  1  0  0  0  0
 14 27  1  0  0  0  0
 15  5  1  0  0  0  0
 15 30  1  0  0  0  0
 16 32  1  0  0  0  0
 16 33  1  0  0  0  0
 17  8  1  0  0  0  0
 17 37  1  0  0  0  0
 18 40  1  0  0  0  0
 19  3  1  0  0  0  0
 20  4  1  0  0  0  0
 22  9  1  0  0  0  0
 25 13  1  0  0  0  0
 26 14  1  0  0  0  0
 28 14  1  0  0  0  0
 29 15  1  0  0  0  0
 31 15  1  0  0  0  0
 34 16  1  0  0  0  0
 35 17  1  0  0  0  0
 36 17  1  0  0  0  0
 38 18  1  0  0  0  0
 39 18  1  0  0  0  0
M  END
