10
q = 0.0, confidence = 0.978

 59 60  0  0  1  0  0  0  0  0999 V2000
   -1.9762    1.1843    0.7936 P   0  0  0  0  0  0  0  0  0  0  0  0
    3.8839   -0.3192    0.6036 P   0  0  0  0  0  0  0  0  0  0  0  0
   -4.9259    1.7842   -0.1009 Si  0  0  0  0  0  0  0  0  0  0  0  0
    6.9077   -0.2853   -0.2870 Si  0  0  0  0  0  0  0  0  0  0  0  0
    0.9173    0.1312    1.2803 Si  0  0  0  0  0  0  0  0  0  0  0  0
   -0.5442    0.3677    0.0643 C   0  0  1  0  0  3  0  0  0  0  0  0
   -0.5190   -0.1394   -1.2778 C   0  0  0  0  0  0  0  0  0  0  0  0
   -1.6391   -0.0051   -2.1727 C   0  0  0  0  0  0  0  0  0  0  0  0
   -1.5397   -0.4187   -3.1863 H   0  0  0  0  0  0  0  0  0  0  0  0
   -2.8857    0.5671   -1.8016 C   0  0  0  0  0  3  0  0  0  0  0  0
   -3.6856    0.5338   -2.5598 H   0  0  0  0  0  0  0  0  0  0  0  0
   -3.1802    1.1377   -0.5233 C   0  0  0  0  0  0  0  0  0  0  0  0
    0.7226   -0.7939   -1.8366 C   0  0  0  0  0  0  0  0  0  0  0  0
    1.2457   -1.4117   -1.0850 H   0  0  0  0  0  0  0  0  0  0  0  0
    1.4394   -0.0126   -2.1645 H   0  0  0  0  0  0  0  0  0  0  0  0
    0.4806   -1.4348   -2.7054 H   0  0  0  0  0  0  0  0  0  0  0  0
   -4.8380    3.6732   -0.0240 C   0  0  0  0  0  0  0  0  0  0  0  0
   -4.1167    4.0002    0.7528 H   0  0  0  0  0  0  0  0  0  0  0  0
   -5.8281    4.1079    0.2252 H   0  0  0  0  0  0  0  0  0  0  0  0
   -4.5103    4.0992   -0.9942 H   0  0  0  0  0  0  0  0  0  0  0  0
   -5.4471    1.0847    1.5724 C   0  0  0  0  0  0  0  0  0  0  0  0
   -5.5277   -0.0197    1.5203 H   0  0  0  0  0  0  0  0  0  0  0  0
   -6.4294    1.4953    1.8842 H   0  0  0  0  0  0  0  0  0  0  0  0
   -4.7065    1.3327    2.3601 H   0  0  0  0  0  0  0  0  0  0  0  0
   -6.1234    1.2331   -1.4555 C   0  0  0  0  0  0  0  0  0  0  0  0
   -5.8564    1.6534   -2.4468 H   0  0  0  0  0  0  0  0  0  0  0  0
   -7.1462    1.5879   -1.2121 H   0  0  0  0  0  0  0  0  0  0  0  0
   -6.1617    0.1283   -1.5397 H   0  0  0  0  0  0  0  0  0  0  0  0
    2.5211    0.7960    0.4908 C   0  0  0  0  0  0  0  0  0  0  0  0
    2.6064    2.0785   -0.1135 C   0  0  0  0  0  0  0  0  0  0  0  0
    3.8131    2.5509   -0.6760 C   0  0  0  0  0  0  0  0  0  0  0  0
    3.8031    3.5572   -1.1262 H   0  0  0  0  0  0  0  0  0  0  0  0
    5.0198    1.8373   -0.7046 C   0  0  0  0  0  0  0  0  0  0  0  0
    5.8796    2.3422   -1.1841 H   0  0  0  0  0  0  0  0  0  0  0  0
    5.2011    0.5478   -0.1705 C   0  0  0  0  0  0  0  0  0  0  0  0
    1.3961    2.9841   -0.2000 C   0  0  0  0  0  0  0  0  0  0  0  0
    0.8693    3.0661    0.7713 H   0  0  0  0  0  0  0  0  0  0  0  0
    0.6529    2.5888   -0.9233 H   0  0  0  0  0  0  0  0  0  0  0  0
    1.6759    4.0047   -0.5246 H   0  0  0  0  0  0  0  0  0  0  0  0
    8.1683    0.8107    0.6059 C   0  0  0  0  0  0  0  0  0  0  0  0
    8.1966    1.8303    0.1697 H   0  0  0  0  0  0  0  0  0  0  0  0
    9.1891    0.3817    0.5320 H   0  0  0  0  0  0  0  0  0  0  0  0
    7.9130    0.9091    1.6806 H   0  0  0  0  0  0  0  0  0  0  0  0
    7.3742   -0.4298   -2.1175 C   0  0  0  0  0  0  0  0  0  0  0  0
    6.6487   -1.0699   -2.6596 H   0  0  0  0  0  0  0  0  0  0  0  0
    8.3830   -0.8772   -2.2351 H   0  0  0  0  0  0  0  0  0  0  0  0
    7.3845    0.5638   -2.6107 H   0  0  0  0  0  0  0  0  0  0  0  0
    6.8518   -1.9974    0.5083 C   0  0  0  0  0  0  0  0  0  0  0  0
    6.5723   -1.9370    1.5797 H   0  0  0  0  0  0  0  0  0  0  0  0
    7.8465   -2.4845    0.4398 H   0  0  0  0  0  0  0  0  0  0  0  0
    6.1128   -2.6539    0.0059 H   0  0  0  0  0  0  0  0  0  0  0  0
    0.5498    1.0728    2.8813 C   0  0  0  0  0  0  0  0  0  0  0  0
    0.3887    2.1587    2.7365 H   0  0  0  0  0  0  0  0  0  0  0  0
    1.4165    0.9436    3.5619 H   0  0  0  0  0  0  0  0  0  0  0  0
   -0.3474    0.6585    3.3848 H   0  0  0  0  0  0  0  0  0  0  0  0
    1.0950   -1.6910    1.7467 C   0  0  0  0  0  0  0  0  0  0  0  0
    0.1518   -2.0135    2.2324 H   0  0  0  0  0  0  0  0  0  0  0  0
    1.9289   -1.8323    2.4635 H   0  0  0  0  0  0  0  0  0  0  0  0
    1.2756   -2.3582    0.8823 H   0  0  0  0  0  0  0  0  0  0  0  0
  3 17  1  0  0  0  0
  3 21  1  0  0  0  0
  4 35  1  0  0  0  0
  4 48  1  0  0  0  0
  4 40  1  0  0  0  0
  5 56  1  0  0  0  0
  5 52  1  0  0  0  0
  6  1  1  0  0  0  0
  6  5  1  1  0  0  0
  7  6  1  0  0  0  0
  8 10  1  0  0  0  0
  8  7  2  0  0  0  0
  9  8  1  0  0  0  0
 10 12  1  0  0  0  0
 11 10  1  0  0  0  0
 12  3  1  0  0  0  0
 12  1  2  0  0  0  0
 13  7  1  0  0  0  0
 13 14  1  0  0  0  0
 15 13  1  0  0  0  0
 16 13  1  0  0  0  0
 17 19  1  0  0  0  0
 17 18  1  0  0  0  0
 20 17  1  0  0  0  0
 21 23  1  0  0  0  0
 21 24  1  0  0  0  0
 22 21  1  0  0  0  0
 25 27  1  0  0  0  0
 25  3  1  0  0  0  0
 26 25  1  0  0  0  0
 28 25  1  0  0  0  0
 29  2  1  0  0  0  0
 29  5  1  0  0  0  0
 30 29  2  0  0  0  0
 31 30  1  0  0  0  0
 32 31  1  0  0  0  0
 33 31  2  0  0  0  0
 33 35  1  0  0  0  0
 34 33  1  0  0  0  0
 35  2  2  0  0  0  0
 36 30  1  0  0  0  0
 36 37  1  0  0  0  0
 38 36  1  0  0  0  0
 39 36  1  0  0  0  0
 40 43  1  0  0  0  0
 41 40  1  0  0  0  0
 42 40  1  0  0  0  0
 44  4  1  0  0  0  0
 45 44  1  0  0  0  0
 46 44  1  0  0  0  0
 47 44  1  0  0  0  0
 48 49  1  0  0  0  0
 50 48  1  0  0  0  0
 51 48  1  0  0  0  0
 52 55  1  0  0  0  0
 52 54  1  0  0  0  0
 53 52  1  0  0  0  0
 56 57  1  0  0  0  0
 56 58  1  0  0  0  0
 59 56  1  0  0  0  0
M  END
