23
q = -2.0, confidence = 0.668

 69 69  0  0  1  0  0  0  0  0999 V2000
   -0.6251    0.4971    1.1395 P   0  0  0  0  0  2  0  0  0  0  0  0
    1.2623   -0.8095    2.7339 N   0  0  0  0  0  0  0  0  0  0  0  0
    0.8214    1.0115    0.1806 N   0  0  0  0  0  0  0  0  0  0  0  0
    1.5689    0.0789   -0.4985 N   0  0  0  0  0  0  0  0  0  0  0  0
    1.7956    2.6699   -1.1066 O   0  0  0  0  0  0  0  0  0  0  0  0
    0.0262    3.1025    0.3056 O   0  0  0  0  0  0  0  0  0  0  0  0
    3.4611    0.2479    0.8373 O   0  0  0  0  0  0  0  0  0  0  0  0
    3.3911   -1.0155   -1.0932 O   0  0  0  0  0  0  0  0  0  0  0  0
    0.1547   -0.9881    1.9438 C   0  0  0  0  0  0  0  0  0  0  0  0
   -0.5212   -2.1735    1.7666 C   0  0  0  0  0  0  0  0  0  0  0  0
    1.9617   -1.9617    3.2523 C   0  0  0  0  0  0  0  0  0  0  0  0
    1.6262    0.4775    3.3025 C   0  0  0  0  0  0  0  0  0  0  0  0
    0.9617    2.3297   -0.2841 C   0  0  0  0  0  0  0  0  0  0  0  0
   -0.2030    4.4894   -0.1307 C   0  0  0  0  0  0  0  0  0  0  0  0
    1.0386    5.3361    0.1639 C   0  0  0  0  0  0  0  0  0  0  0  0
   -0.5770    4.5010   -1.6167 C   0  0  0  0  0  0  0  0  0  0  0  0
   -1.3891    4.9177    0.7359 C   0  0  0  0  0  0  0  0  0  0  0  0
    2.8866   -0.1730   -0.1512 C   0  0  0  0  0  0  0  0  0  0  0  0
    4.7677   -1.5157   -0.9857 C   0  0  0  0  0  0  0  0  0  0  0  0
    4.9207   -2.3412    0.2974 C   0  0  0  0  0  0  0  0  0  0  0  0
    5.7555   -0.3453   -1.0425 C   0  0  0  0  0  0  0  0  0  0  0  0
    4.9025   -2.4049   -2.2240 C   0  0  0  0  0  0  0  0  0  0  0  0
   -1.5600   -2.2158    0.7239 C   0  0  2  0  0  3  0  0  0  0  0  0
   -1.3373   -2.3990   -0.6955 C   0  0  2  0  0  3  0  0  0  0  0  0
   -2.6157   -2.2699   -1.3699 C   0  0  0  0  0  0  0  0  0  0  0  0
   -3.6195   -1.9991   -0.3785 C   0  0  0  0  0  0  0  0  0  0  0  0
   -2.9733   -1.9737    0.9226 C   0  0  1  0  0  3  0  0  0  0  0  0
   -0.0379   -2.7816   -1.3298 C   0  0  0  0  0  0  0  0  0  0  0  0
   -2.8480   -2.4661   -2.8364 C   0  0  0  0  0  0  0  0  0  0  0  0
   -5.0900   -1.8552   -0.6236 C   0  0  0  0  0  0  0  0  0  0  0  0
   -3.6376   -1.7852    2.2495 C   0  0  0  0  0  0  0  0  0  0  0  0
    1.3226   -0.0780   -1.4825 H   0  0  0  0  0  0  0  0  0  0  0  0
   -0.3498   -3.0627    2.3947 H   0  0  0  0  0  0  0  0  0  0  0  0
    1.9902   -2.7610    2.4830 H   0  0  0  0  0  0  0  0  0  0  0  0
    3.0038   -1.6772    3.5002 H   0  0  0  0  0  0  0  0  0  0  0  0
    1.4883   -2.3866    4.1710 H   0  0  0  0  0  0  0  0  0  0  0  0
    0.9544    1.2640    2.9082 H   0  0  0  0  0  0  0  0  0  0  0  0
    1.5207    0.4642    4.4121 H   0  0  0  0  0  0  0  0  0  0  0  0
    2.6658    0.7422    3.0243 H   0  0  0  0  0  0  0  0  0  0  0  0
    1.8977    4.9926   -0.4406 H   0  0  0  0  0  0  0  0  0  0  0  0
    0.8323    6.3991   -0.0727 H   0  0  0  0  0  0  0  0  0  0  0  0
    1.3050    5.2659    1.2374 H   0  0  0  0  0  0  0  0  0  0  0  0
    0.2684    4.1567   -2.2399 H   0  0  0  0  0  0  0  0  0  0  0  0
   -1.4471    3.8392   -1.7992 H   0  0  0  0  0  0  0  0  0  0  0  0
   -0.8531    5.5292   -1.9243 H   0  0  0  0  0  0  0  0  0  0  0  0
   -1.1267    4.8545    1.8101 H   0  0  0  0  0  0  0  0  0  0  0  0
   -1.6759    5.9615    0.5015 H   0  0  0  0  0  0  0  0  0  0  0  0
   -2.2608    4.2586    0.5541 H   0  0  0  0  0  0  0  0  0  0  0  0
    4.1595   -3.1469    0.3295 H   0  0  0  0  0  0  0  0  0  0  0  0
    5.9234   -2.8126    0.3240 H   0  0  0  0  0  0  0  0  0  0  0  0
    4.8019   -1.7011    1.1903 H   0  0  0  0  0  0  0  0  0  0  0  0
    5.5838    0.2569   -1.9567 H   0  0  0  0  0  0  0  0  0  0  0  0
    5.6399    0.3092   -0.1599 H   0  0  0  0  0  0  0  0  0  0  0  0
    6.7937   -0.7320   -1.0711 H   0  0  0  0  0  0  0  0  0  0  0  0
    4.7405   -1.8128   -3.1460 H   0  0  0  0  0  0  0  0  0  0  0  0
    5.9147   -2.8526   -2.2655 H   0  0  0  0  0  0  0  0  0  0  0  0
    4.1555   -3.2228   -2.1991 H   0  0  0  0  0  0  0  0  0  0  0  0
    0.0076   -3.8828   -1.4734 H   0  0  0  0  0  0  0  0  0  0  0  0
    0.0958   -2.3170   -2.3267 H   0  0  0  0  0  0  0  0  0  0  0  0
    0.8136   -2.4828   -0.6915 H   0  0  0  0  0  0  0  0  0  0  0  0
   -2.9928   -3.5435   -3.0679 H   0  0  0  0  0  0  0  0  0  0  0  0
   -3.7492   -1.9261   -3.1842 H   0  0  0  0  0  0  0  0  0  0  0  0
   -1.9891   -2.1114   -3.4379 H   0  0  0  0  0  0  0  0  0  0  0  0
   -5.5979   -2.8393   -0.5306 H   0  0  0  0  0  0  0  0  0  0  0  0
   -5.5611   -1.1692    0.1061 H   0  0  0  0  0  0  0  0  0  0  0  0
   -5.3000   -1.4646   -1.6376 H   0  0  0  0  0  0  0  0  0  0  0  0
   -4.0487   -2.7480    2.6225 H   0  0  0  0  0  0  0  0  0  0  0  0
   -2.9030   -1.4217    2.9939 H   0  0  0  0  0  0  0  0  0  0  0  0
   -4.4746   -1.0620    2.2000 H   0  0  0  0  0  0  0  0  0  0  0  0
  1  9  1  0  0  0  0
  2 11  1  0  0  0  0
  2 12  1  0  0  0  0
  3  1  1  0  0  0  0
  4 18  1  0  0  0  0
  4  3  1  0  0  0  0
  5 13  2  0  0  0  0
  8 19  1  0  0  0  0
  8 18  1  0  0  0  0
  9  2  1  0  0  0  0
 10  9  2  0  0  0  0
 10 33  1  0  0  0  0
 11 35  1  0  0  0  0
 11 36  1  0  0  0  0
 12 38  1  0  0  0  0
 13  3  1  0  0  0  0
 13  6  1  0  0  0  0
 14 15  1  0  0  0  0
 14  6  1  0  0  0  0
 14 17  1  0  0  0  0
 15 42  1  0  0  0  0
 16 14  1  0  0  0  0
 17 46  1  0  0  0  0
 18  7  2  0  0  0  0
 19 20  1  0  0  0  0
 20 50  1  0  0  0  0
 20 49  1  0  0  0  0
 20 51  1  0  0  0  0
 21 19  1  0  0  0  0
 21 53  1  0  0  0  0
 22 57  1  0  0  0  0
 22 19  1  0  0  0  0
 23 27  1  0  0  0  0
 23 10  1  6  0  0  0
 24 28  1  1  0  0  0
 24 23  1  0  0  0  0
 25 24  1  0  0  0  0
 25 26  2  0  0  0  0
 26 27  1  0  0  0  0
 27 31  1  1  0  0  0
 28 60  1  0  0  0  0
 29 25  1  0  0  0  0
 30 64  1  0  0  0  0
 30 26  1  0  0  0  0
 30 65  1  0  0  0  0
 31 67  1  0  0  0  0
 31 68  1  0  0  0  0
 32  4  1  0  0  0  0
 34 11  1  0  0  0  0
 37 12  1  0  0  0  0
 39 12  1  0  0  0  0
 40 15  1  0  0  0  0
 41 15  1  0  0  0  0
 43 16  1  0  0  0  0
 44 16  1  0  0  0  0
 45 16  1  0  0  0  0
 47 17  1  0  0  0  0
 48 17  1  0  0  0  0
 52 21  1  0  0  0  0
 54 21  1  0  0  0  0
 55 22  1  0  0  0  0
 56 22  1  0  0  0  0
 58 28  1  0  0  0  0
 59 28  1  0  0  0  0
 61 29  1  0  0  0  0
 62 29  1  0  0  0  0
 63 29  1  0  0  0  0
 66 30  1  0  0  0  0
 69 31  1  0  0  0  0
M  END
