8
q = 0.0, confidence = 0.954

 31 31  0  0  1  0  0  0  0  0999 V2000
   -2.5597   -0.0225    1.0289 S   0  0  1  0  0  0  0  0  0  0  0  0
   -2.4371   -1.4571    1.5337 O   0  0  0  0  0  0  0  0  0  0  0  0
    3.7553   -1.9546    0.3780 O   0  0  0  0  0  0  0  0  0  0  0  0
    4.2800   -0.1763   -0.9384 O   0  0  0  0  0  0  0  0  0  0  0  0
    5.1363   -2.0460    0.7430 C   0  0  0  0  0  0  0  0  0  0  0  0
    3.4508   -0.9472   -0.4797 C   0  0  0  0  0  0  0  0  0  0  0  0
    1.9940   -0.9173   -0.7610 C   0  0  0  0  0  3  0  0  0  0  0  0
    1.5247   -0.0877   -1.8360 C   0  0  0  0  0  3  0  0  0  0  0  0
    0.1224    0.1344   -1.9231 C   0  0  0  0  0  3  0  0  0  0  0  0
   -0.7135   -0.4638   -0.9227 C   0  0  0  0  0  3  0  0  0  0  0  0
   -2.1738   -0.1294   -0.8260 C   0  0  1  0  0  0  0  0  0  0  0  0
   -3.0606   -1.2109   -1.4539 C   0  0  0  0  0  0  0  0  0  0  0  0
   -4.5641   -0.9161   -1.3812 C   0  0  0  0  0  0  0  0  0  0  0  0
   -5.0728   -0.7957    0.0596 C   0  0  0  0  0  0  0  0  0  0  0  0
   -4.3795    0.3191    0.8308 C   0  0  0  0  0  0  0  0  0  0  0  0
    5.2095   -2.8817    1.4612 H   0  0  0  0  0  0  0  0  0  0  0  0
    5.4843   -1.1018    1.2089 H   0  0  0  0  0  0  0  0  0  0  0  0
    5.7687   -2.2435   -0.1464 H   0  0  0  0  0  0  0  0  0  0  0  0
    1.4473   -1.8259   -0.4682 H   0  0  0  0  0  0  0  0  0  0  0  0
    2.2404    0.4349   -2.4886 H   0  0  0  0  0  0  0  0  0  0  0  0
   -0.2799    0.8505   -2.6578 H   0  0  0  0  0  0  0  0  0  0  0  0
   -0.4860   -1.4859   -0.5771 H   0  0  0  0  0  0  0  0  0  0  0  0
   -2.3937    0.8825   -1.2309 H   0  0  0  0  0  0  0  0  0  0  0  0
   -2.8417   -2.1633   -0.9237 H   0  0  0  0  0  0  0  0  0  0  0  0
   -2.7414   -1.3509   -2.5088 H   0  0  0  0  0  0  0  0  0  0  0  0
   -5.1164   -1.7242   -1.9038 H   0  0  0  0  0  0  0  0  0  0  0  0
   -4.7882    0.0235   -1.9354 H   0  0  0  0  0  0  0  0  0  0  0  0
   -4.8893   -1.7475    0.6033 H   0  0  0  0  0  0  0  0  0  0  0  0
   -6.1692   -0.6210    0.0724 H   0  0  0  0  0  0  0  0  0  0  0  0
   -4.4536    1.3136    0.3400 H   0  0  0  0  0  0  0  0  0  0  0  0
   -4.7500    0.4133    1.8714 H   0  0  0  0  0  0  0  0  0  0  0  0
  1  2  2  1  0  0  0
  3  5  1  0  0  0  0
  4  6  2  0  0  0  0
  5 17  1  0  0  0  0
  5 16  1  0  0  0  0
  6  3  1  0  0  0  0
  7  6  1  0  0  0  0
  7 19  1  0  0  0  0
  8  7  1  0  0  0  0
  9  8  1  0  0  0  0
  9 10  1  0  0  0  0
 10 11  1  0  0  0  0
 10 22  1  0  0  0  0
 11 23  1  6  0  0  0
 11  1  1  0  0  0  0
 12 13  1  0  0  0  0
 12 24  1  0  0  0  0
 12 11  1  0  0  0  0
 13 14  1  0  0  0  0
 14 29  1  0  0  0  0
 14 28  1  0  0  0  0
 14 15  1  0  0  0  0
 15  1  1  0  0  0  0
 15 31  1  0  0  0  0
 18  5  1  0  0  0  0
 20  8  1  0  0  0  0
 21  9  1  0  0  0  0
 25 12  1  0  0  0  0
 26 13  1  0  0  0  0
 27 13  1  0  0  0  0
 30 15  1  0  0  0  0
M  END
