9
q = 0.0, confidence = 0.986

 27 27  0  0  1  0  0  0  0  0999 V2000
   -3.4823    3.1221   -0.7818 O   0  0  0  0  0  0  0  0  0  0  0  0
   -1.6392    4.4346   -0.8632 O   0  0  0  0  0  0  0  0  0  0  0  0
   -2.2600    4.9828   -1.3918 H   0  0  0  0  0  0  0  0  0  0  0  0
   -3.4668   -3.1294   -0.8027 O   0  0  0  0  0  0  0  0  0  0  0  0
   -1.6192   -4.4357   -0.8859 O   0  0  0  0  0  0  0  0  0  0  0  0
   -2.2363   -4.9825   -1.4203 H   0  0  0  0  0  0  0  0  0  0  0  0
   -1.9414    1.0808    0.4370 N   0  0  0  0  0  0  0  0  0  0  0  0
   -1.9371   -1.0910    0.4333 N   0  0  0  0  0  0  0  0  0  0  0  0
   -1.1447   -0.0032    0.2709 C   0  0  0  0  0  2  0  0  0  0  0  0
   -3.2420    0.6765    0.7304 C   0  0  0  0  0  0  0  0  0  0  0  0
   -4.0556    1.3945    0.8497 H   0  0  0  0  0  0  0  0  0  0  0  0
   -3.2392   -0.6931    0.7279 C   0  0  0  0  0  0  0  0  0  0  0  0
   -4.0501   -1.4146    0.8444 H   0  0  0  0  0  0  0  0  0  0  0  0
   -1.4394    2.4554    0.3980 C   0  0  1  0  0  0  0  0  0  0  0  0
   -0.4428    2.4036   -0.0857 H   0  0  0  0  0  0  0  0  0  0  0  0
   -2.3236    3.3362   -0.4877 C   0  0  0  0  0  0  0  0  0  0  0  0
   -1.2856    3.0451    1.8074 C   0  0  0  0  0  0  0  0  0  0  0  0
   -0.8522    4.0605    1.7404 H   0  0  0  0  0  0  0  0  0  0  0  0
   -0.6046    2.3997    2.3970 H   0  0  0  0  0  0  0  0  0  0  0  0
   -2.2659    3.1081    2.3198 H   0  0  0  0  0  0  0  0  0  0  0  0
   -1.4304   -2.4638    0.3886 C   0  0  2  0  0  0  0  0  0  0  0  0
   -0.4318   -2.4061   -0.0901 H   0  0  0  0  0  0  0  0  0  0  0  0
   -2.3085   -3.3418   -0.5059 C   0  0  0  0  0  0  0  0  0  0  0  0
   -1.2810   -3.0612    1.7952 C   0  0  0  0  0  0  0  0  0  0  0  0
   -0.6040   -2.4175    2.3912 H   0  0  0  0  0  0  0  0  0  0  0  0
   -0.8447   -4.0750    1.7241 H   0  0  0  0  0  0  0  0  0  0  0  0
   -2.2632   -3.1297    2.3033 H   0  0  0  0  0  0  0  0  0  0  0  0
  1 16  2  0  0  0  0
  2 16  1  0  0  0  0
  3  2  1  0  0  0  0
  4 23  2  0  0  0  0
  5 23  1  0  0  0  0
  6  5  1  0  0  0  0
  7 10  1  0  0  0  0
  8 12  1  0  0  0  0
  9  8  1  0  0  0  0
  9  7  1  0  0  0  0
 10 11  1  0  0  0  0
 12 10  2  0  0  0  0
 12 13  1  0  0  0  0
 14 15  1  6  0  0  0
 14  7  1  0  0  0  0
 14 17  1  0  0  0  0
 16 14  1  0  0  0  0
 17 20  1  0  0  0  0
 17 19  1  0  0  0  0
 18 17  1  0  0  0  0
 21 22  1  6  0  0  0
 21  8  1  0  0  0  0
 21 24  1  0  0  0  0
 23 21  1  0  0  0  0
 24 27  1  0  0  0  0
 24 25  1  0  0  0  0
 26 24  1  0  0  0  0
M  END
