3
q = 0.0, confidence = 1.0

 26 27  0  0  0  0  0  0  0  0999 V2000
    2.5485    1.7797    0.4843 S   0  0  0  0  0  0  0  0  0  0  0  0
    2.8369   -0.6009   -0.3569 N   0  0  0  0  0  0  0  0  0  0  0  0
    1.8534    0.2665   -0.0112 C   0  0  0  0  0  2  0  0  0  0  0  0
    4.1542   -0.1240   -0.2486 C   0  0  0  0  0  0  0  0  0  0  0  0
    5.3535   -0.8053   -0.5238 C   0  0  0  0  0  0  0  0  0  0  0  0
    5.3475   -1.8476   -0.8700 H   0  0  0  0  0  0  0  0  0  0  0  0
    6.5652   -0.1261   -0.3445 C   0  0  0  0  0  0  0  0  0  0  0  0
    7.5089   -0.6497   -0.5567 H   0  0  0  0  0  0  0  0  0  0  0  0
    6.5942    1.2110    0.1017 C   0  0  0  0  0  0  0  0  0  0  0  0
    7.5591    1.7222    0.2339 H   0  0  0  0  0  0  0  0  0  0  0  0
    5.4048    1.8960    0.3814 C   0  0  0  0  0  0  0  0  0  0  0  0
    5.4191    2.9376    0.7331 H   0  0  0  0  0  0  0  0  0  0  0  0
    4.1887    1.2189    0.2039 C   0  0  0  0  0  0  0  0  0  0  0  0
    2.5055   -1.9323   -0.8955 C   0  0  0  0  0  0  0  0  0  0  0  0
    3.4542   -2.4430   -1.1473 H   0  0  0  0  0  0  0  0  0  0  0  0
    1.9468   -1.7609   -1.8403 H   0  0  0  0  0  0  0  0  0  0  0  0
    1.6753   -2.7893    0.0647 C   0  0  0  0  0  0  0  0  0  0  0  0
    0.7851   -2.1693    0.3349 H   0  0  0  0  0  0  0  0  0  0  0  0
    1.1797   -4.0414   -0.6607 C   0  0  0  0  0  0  0  0  0  0  0  0
    0.5812   -3.7774   -1.5567 H   0  0  0  0  0  0  0  0  0  0  0  0
    0.5404   -4.6518    0.0077 H   0  0  0  0  0  0  0  0  0  0  0  0
    2.0252   -4.6829   -0.9911 H   0  0  0  0  0  0  0  0  0  0  0  0
    2.4338   -3.1066    1.3533 C   0  0  0  0  0  0  0  0  0  0  0  0
    3.3355   -3.7230    1.1464 H   0  0  0  0  0  0  0  0  0  0  0  0
    1.7909   -3.6672    2.0605 H   0  0  0  0  0  0  0  0  0  0  0  0
    2.7539   -2.1805    1.8718 H   0  0  0  0  0  0  0  0  0  0  0  0
  2  4  1  0  0  0  0
  2  3  1  0  0  0  0
  3  1  1  0  0  0  0
  4 13  1  0  0  0  0
  5  7  1  0  0  0  0
  5  4  2  0  0  0  0
  6  5  1  0  0  0  0
  7  9  2  0  0  0  0
  8  7  1  0  0  0  0
  9 10  1  0  0  0  0
  9 11  1  0  0  0  0
 11 12  1  0  0  0  0
 13 11  2  0  0  0  0
 13  1  1  0  0  0  0
 14  2  1  0  0  0  0
 14 17  1  0  0  0  0
 15 14  1  0  0  0  0
 16 14  1  0  0  0  0
 17 18  1  0  0  0  0
 17 23  1  0  0  0  0
 19 21  1  0  0  0  0
 19 17  1  0  0  0  0
 20 19  1  0  0  0  0
 22 19  1  0  0  0  0
 23 26  1  0  0  0  0
 23 25  1  0  0  0  0
 24 23  1  0  0  0  0
M  END
