1
q = -1.0, confidence = 0.024

 43 42  0  0  0  0  0  0  0  0999 V2000
    1.5345    0.8084    0.6084 C   0  0  0  0  0  3  0  0  0  0  0  0
    0.3127    0.0667    0.0950 C   0  0  0  0  0  0  0  0  0  0  0  0
   -1.0055    0.7323    0.5195 C   0  0  0  0  0  0  0  0  0  0  0  0
   -2.2510   -0.0089    0.0258 C   0  0  0  0  0  0  0  0  0  0  0  0
   -3.5709    0.6503    0.4340 C   0  0  0  0  0  0  0  0  0  0  0  0
   -4.8155   -0.0921   -0.0593 C   0  0  0  0  0  0  0  0  0  0  0  0
   -6.1355    0.5687    0.3464 C   0  0  0  0  0  0  0  0  0  0  0  0
   -7.3802   -0.1732   -0.1474 C   0  0  0  0  0  0  0  0  0  0  0  0
   -8.6999    0.4886    0.2575 C   0  0  0  0  0  0  0  0  0  0  0  0
   -9.9446   -0.2529   -0.2367 C   0  0  0  0  0  0  0  0  0  0  0  0
  -11.2642    0.4093    0.1680 C   0  0  0  0  0  0  0  0  0  0  0  0
  -12.5091   -0.3316   -0.3263 C   0  0  0  0  0  0  0  0  0  0  0  0
  -13.8297    0.3307    0.0783 C   0  0  0  0  0  0  0  0  0  0  0  0
  -15.0666   -0.4171   -0.4204 C   0  0  0  0  0  0  0  0  0  0  0  0
    1.5484    0.8201    1.7189 H   0  0  0  0  0  0  0  0  0  0  0  0
    1.5194    1.8624    0.2597 H   0  0  0  0  0  0  0  0  0  0  0  0
    0.3101   -0.9817    0.4671 H   0  0  0  0  0  0  0  0  0  0  0  0
    0.3398   -0.0035   -1.0141 H   0  0  0  0  0  0  0  0  0  0  0  0
   -1.0373    0.8138    1.6297 H   0  0  0  0  0  0  0  0  0  0  0  0
   -1.0262    1.7802    0.1430 H   0  0  0  0  0  0  0  0  0  0  0  0
   -2.2094   -0.0957   -1.0837 H   0  0  0  0  0  0  0  0  0  0  0  0
   -2.2297   -1.0560    0.4058 H   0  0  0  0  0  0  0  0  0  0  0  0
   -3.5920    1.6966    0.0531 H   0  0  0  0  0  0  0  0  0  0  0  0
   -3.6107    0.7383    1.5437 H   0  0  0  0  0  0  0  0  0  0  0  0
   -4.7747   -0.1812   -1.1688 H   0  0  0  0  0  0  0  0  0  0  0  0
   -4.7954   -1.1382    0.3226 H   0  0  0  0  0  0  0  0  0  0  0  0
   -6.1554    1.6148   -0.0355 H   0  0  0  0  0  0  0  0  0  0  0  0
   -6.1765    0.6578    1.4559 H   0  0  0  0  0  0  0  0  0  0  0  0
   -7.3390   -0.2626   -1.2569 H   0  0  0  0  0  0  0  0  0  0  0  0
   -7.3608   -1.2192    0.2348 H   0  0  0  0  0  0  0  0  0  0  0  0
   -8.7191    1.5346   -0.1245 H   0  0  0  0  0  0  0  0  0  0  0  0
   -8.7413    0.5779    1.3670 H   0  0  0  0  0  0  0  0  0  0  0  0
   -9.9030   -0.3422   -1.3462 H   0  0  0  0  0  0  0  0  0  0  0  0
   -9.9256   -1.2989    0.1455 H   0  0  0  0  0  0  0  0  0  0  0  0
  -11.2828    1.4554   -0.2141 H   0  0  0  0  0  0  0  0  0  0  0  0
  -11.3055    0.4985    1.2775 H   0  0  0  0  0  0  0  0  0  0  0  0
  -12.4680   -0.4209   -1.4359 H   0  0  0  0  0  0  0  0  0  0  0  0
  -12.4908   -1.3778    0.0558 H   0  0  0  0  0  0  0  0  0  0  0  0
  -13.8442    1.3760   -0.3037 H   0  0  0  0  0  0  0  0  0  0  0  0
  -13.8671    0.4195    1.1872 H   0  0  0  0  0  0  0  0  0  0  0  0
  -16.0055    0.0858   -0.1122 H   0  0  0  0  0  0  0  0  0  0  0  0
  -15.0975   -1.4540   -0.0247 H   0  0  0  0  0  0  0  0  0  0  0  0
  -15.0744   -0.4893   -1.5284 H   0  0  0  0  0  0  0  0  0  0  0  0
  1 15  1  0  0  0  0
  2 17  1  0  0  0  0
  2  3  1  0  0  0  0
  2  1  1  0  0  0  0
  3 19  1  0  0  0  0
  4 22  1  0  0  0  0
  4  5  1  0  0  0  0
  4  3  1  0  0  0  0
  5 24  1  0  0  0  0
  6 26  1  0  0  0  0
  6  7  1  0  0  0  0
  6  5  1  0  0  0  0
  7 28  1  0  0  0  0
  8 30  1  0  0  0  0
  8  9  1  0  0  0  0
  8  7  1  0  0  0  0
  9 32  1  0  0  0  0
 10 34  1  0  0  0  0
 10 11  1  0  0  0  0
 10  9  1  0  0  0  0
 11 36  1  0  0  0  0
 12 38  1  0  0  0  0
 12 13  1  0  0  0  0
 12 11  1  0  0  0  0
 13 40  1  0  0  0  0
 14 41  1  0  0  0  0
 14 42  1  0  0  0  0
 14 13  1  0  0  0  0
 16  1  1  0  0  0  0
 18  2  1  0  0  0  0
 20  3  1  0  0  0  0
 21  4  1  0  0  0  0
 23  5  1  0  0  0  0
 25  6  1  0  0  0  0
 27  7  1  0  0  0  0
 29  8  1  0  0  0  0
 31  9  1  0  0  0  0
 33 10  1  0  0  0  0
 35 11  1  0  0  0  0
 37 12  1  0  0  0  0
 39 13  1  0  0  0  0
 43 14  1  0  0  0  0
M  END
