1
q = -1.0, confidence = 0.0

 29 29  0  0  0  0  0  0  0  0999 V2000
    0.9972    0.0592    0.1299 C   0  0  0  0  0  3  0  0  0  0  0  0
    0.5242    1.2527    0.7523 C   0  0  0  0  0  3  0  0  0  0  0  0
    0.8509    2.5823    0.1134 C   0  0  0  0  0  0  0  0  0  0  0  0
    2.3211    3.0260    0.3889 C   0  0  0  0  0  0  0  0  0  0  0  0
    3.3272    2.1288   -0.2791 C   0  0  0  0  0  0  0  0  0  0  0  0
    3.9634    1.1107    0.3348 C   0  0  0  0  0  0  0  0  0  0  0  0
    4.7568    0.0136   -0.3454 C   0  0  0  0  0  0  0  0  0  0  0  0
    3.7914   -1.1252   -0.5957 C   0  0  0  0  0  0  0  0  0  0  0  0
    3.5127   -2.1128    0.2778 C   0  0  0  0  0  0  0  0  0  0  0  0
    2.3466   -3.0734    0.1819 C   0  0  0  0  0  0  0  0  0  0  0  0
    1.0094   -2.4427   -0.2929 C   0  0  0  0  0  0  0  0  0  0  0  0
    0.6020   -1.2494    0.5413 C   0  0  0  0  0  3  0  0  0  0  0  0
    1.4169    0.1628   -0.8824 H   0  0  0  0  0  0  0  0  0  0  0  0
    0.4704   -1.4439    1.6218 H   0  0  0  0  0  0  0  0  0  0  0  0
    0.2264   -3.2302   -0.2377 H   0  0  0  0  0  0  0  0  0  0  0  0
    1.0699   -2.1418   -1.3597 H   0  0  0  0  0  0  0  0  0  0  0  0
    2.5942   -3.9293   -0.4870 H   0  0  0  0  0  0  0  0  0  0  0  0
    2.1861   -3.5249    1.1838 H   0  0  0  0  0  0  0  0  0  0  0  0
    4.1397   -2.1891    1.1860 H   0  0  0  0  0  0  0  0  0  0  0  0
    3.1660   -1.0152   -1.4994 H   0  0  0  0  0  0  0  0  0  0  0  0
    5.5935   -0.3202    0.3039 H   0  0  0  0  0  0  0  0  0  0  0  0
    5.1895    0.3813   -1.2990 H   0  0  0  0  0  0  0  0  0  0  0  0
    3.7821    0.9559    1.4150 H   0  0  0  0  0  0  0  0  0  0  0  0
    3.4570    2.2566   -1.3712 H   0  0  0  0  0  0  0  0  0  0  0  0
    2.4412    4.0736    0.0380 H   0  0  0  0  0  0  0  0  0  0  0  0
    2.4917    3.0310    1.4868 H   0  0  0  0  0  0  0  0  0  0  0  0
    0.1676    3.3672    0.5025 H   0  0  0  0  0  0  0  0  0  0  0  0
    0.6798    2.5179   -0.9824 H   0  0  0  0  0  0  0  0  0  0  0  0
    0.3965    1.2597    1.8502 H   0  0  0  0  0  0  0  0  0  0  0  0
  1 12  1  0  0  0  0
  1  2  1  0  0  0  0
  2 29  1  0  0  0  0
  3  4  1  0  0  0  0
  3 27  1  0  0  0  0
  3  2  1  0  0  0  0
  4 26  1  0  0  0  0
  5  6  2  0  0  0  0
  5  4  1  0  0  0  0
  6 23  1  0  0  0  0
  7 21  1  0  0  0  0
  7  6  1  0  0  0  0
  8  7  1  0  0  0  0
  8  9  2  0  0  0  0
  9 19  1  0  0  0  0
 10  9  1  0  0  0  0
 10 18  1  0  0  0  0
 11 15  1  0  0  0  0
 11 10  1  0  0  0  0
 11 12  1  0  0  0  0
 12 14  1  0  0  0  0
 13  1  1  0  0  0  0
 16 11  1  0  0  0  0
 17 10  1  0  0  0  0
 20  8  1  0  0  0  0
 22  7  1  0  0  0  0
 24  5  1  0  0  0  0
 25  4  1  0  0  0  0
 28  3  1  0  0  0  0
M  END
