4
q = -1.0, confidence = 0.002

 21 21  0  0  1  0  0  0  0  0999 V2000
   -1.6036   -2.4224    0.6955 O   0  0  0  0  0  0  0  0  0  0  0  0
   -3.1566   -0.9921   -0.0003 O   0  0  0  0  0  0  0  0  0  0  0  0
   -0.1841   -0.1384    2.0197 C   0  0  0  0  0  3  0  0  0  0  0  0
   -1.0659   -0.0707    0.8756 C   0  0  1  0  0  3  0  0  0  0  0  0
   -1.9250   -1.2615    0.5205 C   0  0  0  0  0  0  0  0  0  0  0  0
   -3.8032    0.2963    0.2212 C   0  0  1  0  0  0  0  0  0  0  0  0
   -3.4002    1.3086   -0.8548 C   0  0  0  0  0  0  0  0  0  0  0  0
   -1.8854    1.2853   -1.1251 C   0  0  0  0  0  0  0  0  0  0  0  0
   -1.0743    1.1806    0.1491 C   0  0  0  0  0  3  0  0  0  0  0  0
   -5.2973    0.0202    0.2673 C   0  0  0  0  0  0  0  0  0  0  0  0
   -0.0950   -1.1180    2.5173 H   0  0  0  0  0  0  0  0  0  0  0  0
   -0.1301    0.7340    2.6896 H   0  0  0  0  0  0  0  0  0  0  0  0
   -3.4668    0.6721    1.2117 H   0  0  0  0  0  0  0  0  0  0  0  0
   -3.7258    2.3129   -0.5091 H   0  0  0  0  0  0  0  0  0  0  0  0
   -3.9509    1.1009   -1.7969 H   0  0  0  0  0  0  0  0  0  0  0  0
   -1.5803    2.1848   -1.6964 H   0  0  0  0  0  0  0  0  0  0  0  0
   -1.6546    0.4136   -1.7719 H   0  0  0  0  0  0  0  0  0  0  0  0
   -1.0154    2.1010    0.7577 H   0  0  0  0  0  0  0  0  0  0  0  0
   -5.8553    0.9623    0.4378 H   0  0  0  0  0  0  0  0  0  0  0  0
   -5.6383   -0.4186   -0.6917 H   0  0  0  0  0  0  0  0  0  0  0  0
   -5.5433   -0.6884    1.0813 H   0  0  0  0  0  0  0  0  0  0  0  0
  2  6  1  0  0  0  0
  2  5  1  0  0  0  0
  3 11  1  0  0  0  0
  3 12  1  0  0  0  0
  4  3  1  1  0  0  0
  5  1  2  0  0  0  0
  5  4  1  0  0  0  0
  6 10  1  0  0  0  0
  6 13  1  1  0  0  0
  7 14  1  0  0  0  0
  7  6  1  0  0  0  0
  8  7  1  0  0  0  0
  8  9  1  0  0  0  0
  9 18  1  0  0  0  0
  9  4  1  0  0  0  0
 10 19  1  0  0  0  0
 10 21  1  0  0  0  0
 15  7  1  0  0  0  0
 16  8  1  0  0  0  0
 17  8  1  0  0  0  0
 20 10  1  0  0  0  0
M  END
