6
q = 0.0, confidence = 0.996

 47 48  0  0  0  0  0  0  0  0999 V2000
    0.4905    0.5779   -2.3843 C   0  0  0  0  0  0  0  0  0  0  0  0
    0.9723    0.0572   -3.2364 H   0  0  0  0  0  0  0  0  0  0  0  0
    0.7673    1.6507   -2.3899 H   0  0  0  0  0  0  0  0  0  0  0  0
   -0.6064    0.4749   -2.4806 H   0  0  0  0  0  0  0  0  0  0  0  0
    0.8044   -1.1812    0.7324 N   0  0  0  0  0  0  0  0  0  0  0  0
    0.0380   -0.7100   -0.2986 C   0  0  0  0  0  2  0  0  0  0  0  0
    0.8841   -0.0350   -1.1325 N   0  0  0  0  0  0  0  0  0  0  0  0
    2.1863   -0.0657   -0.6348 C   0  0  0  0  0  0  0  0  0  0  0  0
    3.3827    0.5014   -1.1033 C   0  0  0  0  0  0  0  0  0  0  0  0
    3.4075    1.0742   -2.0372 H   0  0  0  0  0  0  0  0  0  0  0  0
    4.5356    0.3134   -0.3251 C   0  0  0  0  0  0  0  0  0  0  0  0
    5.7641    0.7973   -0.6382 O   0  0  0  0  0  0  0  0  0  0  0  0
    5.9139    1.5337   -1.8459 C   0  0  0  0  0  0  0  0  0  0  0  0
    5.2591    2.4388   -1.8259 H   0  0  0  0  0  0  0  0  0  0  0  0
    5.5867    0.9102   -2.7101 H   0  0  0  0  0  0  0  0  0  0  0  0
    7.3761    1.9361   -1.9732 C   0  0  0  0  0  0  0  0  0  0  0  0
    7.9938    1.0124   -2.0034 H   0  0  0  0  0  0  0  0  0  0  0  0
    7.6625    2.4725   -1.0444 H   0  0  0  0  0  0  0  0  0  0  0  0
    7.6713    2.8114   -3.1983 C   0  0  0  0  0  0  0  0  0  0  0  0
    7.0604    3.7403   -3.1424 H   0  0  0  0  0  0  0  0  0  0  0  0
    8.7278    3.1476   -3.1362 H   0  0  0  0  0  0  0  0  0  0  0  0
    7.4407    2.1231   -4.5469 C   0  0  0  0  0  0  0  0  0  0  0  0
    7.7406    2.7781   -5.3892 H   0  0  0  0  0  0  0  0  0  0  0  0
    6.3761    1.8554   -4.7071 H   0  0  0  0  0  0  0  0  0  0  0  0
    8.0317    1.1866   -4.6255 H   0  0  0  0  0  0  0  0  0  0  0  0
    4.4833   -0.4389    0.9040 C   0  0  0  0  0  0  0  0  0  0  0  0
    5.6693   -0.5385    1.5519 O   0  0  0  0  0  0  0  0  0  0  0  0
    5.7553   -1.3554    2.7148 C   0  0  0  0  0  0  0  0  0  0  0  0
    5.4058   -2.3880    2.4743 H   0  0  0  0  0  0  0  0  0  0  0  0
    5.0896   -0.9534    3.5145 H   0  0  0  0  0  0  0  0  0  0  0  0
    7.2070   -1.3685    3.1684 C   0  0  0  0  0  0  0  0  0  0  0  0
    7.5060   -0.3293    3.4279 H   0  0  0  0  0  0  0  0  0  0  0  0
    7.2660   -1.9554    4.1109 H   0  0  0  0  0  0  0  0  0  0  0  0
    8.1695   -1.9387    2.1214 C   0  0  0  0  0  0  0  0  0  0  0  0
    8.0414   -1.3626    1.1809 H   0  0  0  0  0  0  0  0  0  0  0  0
    7.8686   -2.9833    1.8828 H   0  0  0  0  0  0  0  0  0  0  0  0
    9.6307   -1.9073    2.5674 C   0  0  0  0  0  0  0  0  0  0  0  0
   10.3034   -2.3235    1.7909 H   0  0  0  0  0  0  0  0  0  0  0  0
    9.7868   -2.4970    3.4952 H   0  0  0  0  0  0  0  0  0  0  0  0
    9.9653   -0.8697    2.7770 H   0  0  0  0  0  0  0  0  0  0  0  0
    3.2798   -1.0068    1.3518 C   0  0  0  0  0  0  0  0  0  0  0  0
    3.2309   -1.5858    2.2814 H   0  0  0  0  0  0  0  0  0  0  0  0
    2.1357   -0.8026    0.5615 C   0  0  0  0  0  0  0  0  0  0  0  0
    0.3042   -1.9919    1.8238 C   0  0  0  0  0  0  0  0  0  0  0  0
    0.5502   -1.5239    2.7992 H   0  0  0  0  0  0  0  0  0  0  0  0
    0.7405   -3.0101    1.7808 H   0  0  0  0  0  0  0  0  0  0  0  0
   -0.7938   -2.0708    1.7160 H   0  0  0  0  0  0  0  0  0  0  0  0
  1  7  1  0  0  0  0
  2  1  1  0  0  0  0
  3  1  1  0  0  0  0
  4  1  1  0  0  0  0
  5 44  1  0  0  0  0
  6  5  1  0  0  0  0
  7  8  1  0  0  0  0
  7  6  1  0  0  0  0
  8 43  1  0  0  0  0
  9  8  2  0  0  0  0
  9 11  1  0  0  0  0
 10  9  1  0  0  0  0
 11 26  2  0  0  0  0
 12 11  1  0  0  0  0
 13 14  1  0  0  0  0
 13 12  1  0  0  0  0
 15 13  1  0  0  0  0
 16 13  1  0  0  0  0
 16 18  1  0  0  0  0
 17 16  1  0  0  0  0
 19 20  1  0  0  0  0
 19 21  1  0  0  0  0
 19 16  1  0  0  0  0
 22 19  1  0  0  0  0
 23 22  1  0  0  0  0
 24 22  1  0  0  0  0
 25 22  1  0  0  0  0
 26 41  1  0  0  0  0
 26 27  1  0  0  0  0
 27 28  1  0  0  0  0
 28 31  1  0  0  0  0
 28 30  1  0  0  0  0
 29 28  1  0  0  0  0
 31 32  1  0  0  0  0
 31 33  1  0  0  0  0
 34 37  1  0  0  0  0
 34 31  1  0  0  0  0
 35 34  1  0  0  0  0
 36 34  1  0  0  0  0
 37 40  1  0  0  0  0
 37 39  1  0  0  0  0
 38 37  1  0  0  0  0
 41 42  1  0  0  0  0
 43  5  1  0  0  0  0
 43 41  2  0  0  0  0
 44 45  1  0  0  0  0
 46 44  1  0  0  0  0
 47 44  1  0  0  0  0
M  END
