8
q = 0.0, confidence = 0.984

 22 24  0  0  1  0  0  0  0  0999 V2000
   -1.1096    1.2950    0.0003 C   0  0  1  0  0  0  0  0  0  0  0  0
   -2.5100    0.7074    0.0000 C   0  0  0  0  0  0  0  0  0  0  0  0
   -2.5100   -0.7074   -0.0000 C   0  0  0  0  0  0  0  0  0  0  0  0
   -1.1096   -1.2950    0.0002 C   0  0  2  0  0  0  0  0  0  0  0  0
   -0.3193   -0.6976    1.1764 C   0  0  0  0  0  0  0  0  0  0  0  0
   -0.3193    0.6976    1.1764 C   0  0  0  0  0  0  0  0  0  0  0  0
   -0.3190    0.6977   -1.1758 C   0  0  0  0  0  3  0  0  0  0  0  0
   -0.3190   -0.6977   -1.1758 C   0  0  0  0  0  3  0  0  0  0  0  0
   -3.7184   -1.4132   -0.0003 C   0  0  0  0  0  0  0  0  0  0  0  0
   -4.9329   -0.7019   -0.0005 C   0  0  0  0  0  0  0  0  0  0  0  0
   -4.9329    0.7019   -0.0005 C   0  0  0  0  0  0  0  0  0  0  0  0
   -3.7184    1.4132   -0.0002 C   0  0  0  0  0  0  0  0  0  0  0  0
   -1.0979    2.3994    0.0003 H   0  0  0  0  0  0  0  0  0  0  0  0
   -1.0978   -2.3994    0.0002 H   0  0  0  0  0  0  0  0  0  0  0  0
   -0.0694   -1.2986    2.0615 H   0  0  0  0  0  0  0  0  0  0  0  0
   -0.0694    1.2985    2.0615 H   0  0  0  0  0  0  0  0  0  0  0  0
   -0.0698    1.2985   -2.0612 H   0  0  0  0  0  0  0  0  0  0  0  0
   -0.0698   -1.2984   -2.0612 H   0  0  0  0  0  0  0  0  0  0  0  0
   -3.7169   -2.5147   -0.0003 H   0  0  0  0  0  0  0  0  0  0  0  0
   -5.8872   -1.2501   -0.0007 H   0  0  0  0  0  0  0  0  0  0  0  0
   -5.8872    1.2501   -0.0006 H   0  0  0  0  0  0  0  0  0  0  0  0
   -3.7169    2.5147   -0.0002 H   0  0  0  0  0  0  0  0  0  0  0  0
  1 13  1  1  0  0  0
  1  6  1  0  0  0  0
  2  1  1  0  0  0  0
  3  2  1  0  0  0  0
  3  4  1  0  0  0  0
  4 14  1  1  0  0  0
  4  5  1  0  0  0  0
  5  6  2  0  0  0  0
  5 15  1  0  0  0  0
  6 16  1  0  0  0  0
  7  1  1  0  0  0  0
  8  7  1  0  0  0  0
  8  4  1  0  0  0  0
  9  3  2  0  0  0  0
 10 11  2  0  0  0  0
 10  9  1  0  0  0  0
 11 12  1  0  0  0  0
 12 22  1  0  0  0  0
 12  2  2  0  0  0  0
 17  7  1  0  0  0  0
 18  8  1  0  0  0  0
 19  9  1  0  0  0  0
 20 10  1  0  0  0  0
 21 11  1  0  0  0  0
M  END
