2
q = 0.0, confidence = 0.878

 17 16  0  0  0  0  0  0  0  0999 V2000
    0.8934   -2.1396   -0.2472 O   0  5  0  0  0  0  0  0  0  0  0  0
    1.7904   -1.2216   -0.0986 C   0  0  0  0  0  3  0  0  0  0  0  0
    4.1619   -2.2332   -0.1078 C   0  0  0  0  0  0  0  0  0  0  0  0
    4.9586   -2.2860    1.2149 C   0  0  0  0  0  0  0  0  0  0  0  0
    4.2881   -2.5224    2.0658 H   0  0  0  0  0  0  0  0  0  0  0  0
    5.4412   -1.3092    1.4276 H   0  0  0  0  0  0  0  0  0  0  0  0
    5.7577   -3.0577    1.1754 H   0  0  0  0  0  0  0  0  0  0  0  0
    3.1367   -1.1055   -0.0188 C   0  0  0  0  0  0  0  0  0  0  0  0
    3.5475   -0.0977    0.1475 H   0  0  0  0  0  0  0  0  0  0  0  0
    3.4933   -3.5955   -0.3535 C   0  0  0  0  0  0  0  0  0  0  0  0
    2.7864   -3.8481    0.4609 H   0  0  0  0  0  0  0  0  0  0  0  0
    4.2593   -4.3969   -0.4130 H   0  0  0  0  0  0  0  0  0  0  0  0
    2.9163   -3.5944   -1.2991 H   0  0  0  0  0  0  0  0  0  0  0  0
    5.1348   -1.9253   -1.2678 C   0  0  0  0  0  0  0  0  0  0  0  0
    4.5932   -1.8950   -2.2349 H   0  0  0  0  0  0  0  0  0  0  0  0
    5.9347   -2.6939   -1.3396 H   0  0  0  0  0  0  0  0  0  0  0  0
    5.6247   -0.9394   -1.1247 H   0  0  0  0  0  0  0  0  0  0  0  0
  1  2  1  0  0  0  0
  2  8  2  0  0  0  0
  3  8  1  0  0  0  0
  3  4  1  0  0  0  0
  4  6  1  0  0  0  0
  4  5  1  0  0  0  0
  7  4  1  0  0  0  0
  8  9  1  0  0  0  0
 10  3  1  0  0  0  0
 10 11  1  0  0  0  0
 12 10  1  0  0  0  0
 13 10  1  0  0  0  0
 14 17  1  0  0  0  0
 14  3  1  0  0  0  0
 15 14  1  0  0  0  0
 16 14  1  0  0  0  0
M  CHG  1   1  -1
M  END
