2
q = 0.0, confidence = 0.932

 24 23  0  0  1  0  0  0  0  0999 V2000
    1.3222   -2.1461   -1.2464 C   0  0  0  0  0  3  0  0  0  0  0  0
    2.6846   -1.9063   -0.8928 C   0  0  0  0  0  3  0  0  0  0  0  0
    2.9958   -1.4518    0.4392 C   0  0  2  0  0  3  0  0  0  0  0  0
    1.8851   -1.3325    1.3219 C   0  0  0  0  0  3  0  0  0  0  0  0
    4.3415   -0.8034    0.7557 C   0  0  0  0  0  0  0  0  0  0  0  0
    4.5889    0.3719   -0.2131 C   0  0  0  0  0  0  0  0  0  0  0  0
    2.3582    1.5334    0.4369 C   0  0  0  0  0  3  0  0  0  0  0  0
    3.2483    1.0170   -0.5526 C   0  0  0  0  0  0  0  0  0  0  0  0
    2.6829    0.8097   -1.8585 C   0  0  0  0  0  0  0  0  0  0  0  0
    1.3004    1.0776   -2.0653 C   0  0  0  0  0  3  0  0  0  0  0  0
    1.1141   -2.3286   -2.3144 H   0  0  0  0  0  0  0  0  0  0  0  0
    0.6698   -2.7248   -0.5707 H   0  0  0  0  0  0  0  0  0  0  0  0
    3.4764   -1.9023   -1.6611 H   0  0  0  0  0  0  0  0  0  0  0  0
    1.1128   -2.1167    1.3575 H   0  0  0  0  0  0  0  0  0  0  0  0
    2.0401   -0.8115    2.2812 H   0  0  0  0  0  0  0  0  0  0  0  0
    5.1661   -1.5476    0.7177 H   0  0  0  0  0  0  0  0  0  0  0  0
    4.3057   -0.4368    1.8010 H   0  0  0  0  0  0  0  0  0  0  0  0
    5.0522    0.0057   -1.1522 H   0  0  0  0  0  0  0  0  0  0  0  0
    5.2966    1.1106    0.2188 H   0  0  0  0  0  0  0  0  0  0  0  0
    2.7007    1.5365    1.4858 H   0  0  0  0  0  0  0  0  0  0  0  0
    1.6982    2.3786    0.1839 H   0  0  0  0  0  0  0  0  0  0  0  0
    3.2839    0.2931   -2.6263 H   0  0  0  0  0  0  0  0  0  0  0  0
    0.8444    2.0036   -1.6721 H   0  0  0  0  0  0  0  0  0  0  0  0
    0.8680    0.7528   -3.0250 H   0  0  0  0  0  0  0  0  0  0  0  0
  1  2  1  0  0  0  0
  1 12  1  0  0  0  0
  3  2  1  6  0  0  0
  3  5  1  0  0  0  0
  3  4  1  0  0  0  0
  4 14  1  0  0  0  0
  4 15  1  0  0  0  0
  5 17  1  0  0  0  0
  6 19  1  0  0  0  0
  6  5  1  0  0  0  0
  7 20  1  0  0  0  0
  8  6  1  0  0  0  0
  8  7  1  0  0  0  0
  9  8  2  0  0  0  0
 10  9  1  0  0  0  0
 10 23  1  0  0  0  0
 11  1  1  0  0  0  0
 13  2  1  0  0  0  0
 16  5  1  0  0  0  0
 18  6  1  0  0  0  0
 21  7  1  0  0  0  0
 22  9  1  0  0  0  0
 24 10  1  0  0  0  0
M  END
