2
q = 0.0, confidence = 0.716

 31 31  0  0  0  0  0  0  0  0999 V2000
    1.7807    0.5647   -0.1155 N   0  0  0  0  0  0  0  0  0  0  0  0
    0.6818    1.1595   -0.3108 C   0  0  0  0  0  3  0  0  0  0  0  0
    0.1870    2.5305   -0.5516 C   0  0  0  0  0  0  0  0  0  0  0  0
   -1.0828    2.7188    0.2951 C   0  0  0  0  0  0  0  0  0  0  0  0
   -2.1785    1.6979    0.0307 C   0  0  0  0  0  0  0  0  0  0  0  0
   -1.9407    0.2965   -0.0710 C   0  0  0  0  0  3  0  0  0  0  0  0
   -3.0989   -0.5136   -0.1899 C   0  0  0  0  0  0  0  0  0  0  0  0
   -4.4055   -0.0075   -0.2457 C   0  0  0  0  0  0  0  0  0  0  0  0
   -4.6107    1.3789   -0.1840 C   0  0  0  0  0  0  0  0  0  0  0  0
   -3.4962    2.2119   -0.0429 C   0  0  0  0  0  0  0  0  0  0  0  0
    3.1826    1.0545   -0.0825 C   0  0  0  0  0  0  0  0  0  0  0  0
    3.3481    1.9534    1.1580 C   0  0  0  0  0  0  0  0  0  0  0  0
    3.4729    1.8420   -1.3730 C   0  0  0  0  0  0  0  0  0  0  0  0
    4.1364   -0.1450    0.0124 C   0  0  0  0  0  0  0  0  0  0  0  0
   -0.0857    2.5951   -1.6291 H   0  0  0  0  0  0  0  0  0  0  0  0
    0.9344    3.3294   -0.3479 H   0  0  0  0  0  0  0  0  0  0  0  0
   -1.4802    3.7423    0.1388 H   0  0  0  0  0  0  0  0  0  0  0  0
   -0.7869    2.6703    1.3684 H   0  0  0  0  0  0  0  0  0  0  0  0
   -2.9852   -1.6102   -0.2311 H   0  0  0  0  0  0  0  0  0  0  0  0
   -5.2606   -0.6963   -0.3405 H   0  0  0  0  0  0  0  0  0  0  0  0
   -5.6241    1.8054   -0.2390 H   0  0  0  0  0  0  0  0  0  0  0  0
   -3.6439    3.3035    0.0236 H   0  0  0  0  0  0  0  0  0  0  0  0
    3.1244    1.3907    2.0858 H   0  0  0  0  0  0  0  0  0  0  0  0
    2.6689    2.8271    1.1142 H   0  0  0  0  0  0  0  0  0  0  0  0
    4.3891    2.3294    1.2255 H   0  0  0  0  0  0  0  0  0  0  0  0
    2.8334    2.7417   -1.4554 H   0  0  0  0  0  0  0  0  0  0  0  0
    3.2946    1.2079   -2.2646 H   0  0  0  0  0  0  0  0  0  0  0  0
    4.5313    2.1721   -1.3922 H   0  0  0  0  0  0  0  0  0  0  0  0
    4.0800   -0.7771   -0.8948 H   0  0  0  0  0  0  0  0  0  0  0  0
    3.8969   -0.7823    0.8846 H   0  0  0  0  0  0  0  0  0  0  0  0
    5.1822    0.2059    0.1157 H   0  0  0  0  0  0  0  0  0  0  0  0
  1 11  1  0  0  0  0
  2  1  2  0  0  0  0
  3 16  1  0  0  0  0
  3  2  1  0  0  0  0
  3  4  1  0  0  0  0
  4 18  1  0  0  0  0
  5  4  1  0  0  0  0
  6  5  2  0  0  0  0
  7  6  1  0  0  0  0
  8  7  2  0  0  0  0
  8  9  1  0  0  0  0
  9 10  2  0  0  0  0
 10 22  1  0  0  0  0
 10  5  1  0  0  0  0
 11 14  1  0  0  0  0
 11 12  1  0  0  0  0
 12 25  1  0  0  0  0
 12 23  1  0  0  0  0
 13 11  1  0  0  0  0
 14 31  1  0  0  0  0
 14 30  1  0  0  0  0
 15  3  1  0  0  0  0
 17  4  1  0  0  0  0
 19  7  1  0  0  0  0
 20  8  1  0  0  0  0
 21  9  1  0  0  0  0
 24 12  1  0  0  0  0
 26 13  1  0  0  0  0
 27 13  1  0  0  0  0
 28 13  1  0  0  0  0
 29 14  1  0  0  0  0
M  END
