3
q = -1.0, confidence = 0.002

 14 14  0  0  0  0  0  0  0  0999 V2000
   -0.8921    1.9909   -0.0003 O   0  0  0  0  0  0  0  0  0  0  0  0
   -2.1161    0.0479    0.0002 N   0  0  0  0  0  0  0  0  0  0  0  0
   -1.0268   -0.8401   -0.0000 C   0  0  0  0  0  3  0  0  0  0  0  0
   -1.5503   -2.1227   -0.0003 C   0  0  0  0  0  0  0  0  0  0  0  0
   -2.9852   -2.0257    0.0001 C   0  0  0  0  0  0  0  0  0  0  0  0
   -3.3079   -0.6861    0.0002 C   0  0  0  0  0  0  0  0  0  0  0  0
   -1.9930    1.4570    0.0003 C   0  0  0  0  0  0  0  0  0  0  0  0
   -3.2817    2.2469   -0.0001 C   0  0  0  0  0  0  0  0  0  0  0  0
   -0.9631   -3.0484   -0.0005 H   0  0  0  0  0  0  0  0  0  0  0  0
   -3.7010   -2.8560    0.0001 H   0  0  0  0  0  0  0  0  0  0  0  0
   -4.2824   -0.1905    0.0003 H   0  0  0  0  0  0  0  0  0  0  0  0
   -3.8927    2.0145   -0.8951 H   0  0  0  0  0  0  0  0  0  0  0  0
   -3.0237    3.3195   -0.0002 H   0  0  0  0  0  0  0  0  0  0  0  0
   -3.8930    2.0149    0.8948 H   0  0  0  0  0  0  0  0  0  0  0  0
  1  7  2  0  0  0  0
  2  6  1  0  0  0  0
  2  7  1  0  0  0  0
  3  2  1  0  0  0  0
  4  3  2  0  0  0  0
  4  5  1  0  0  0  0
  5 10  1  0  0  0  0
  5  6  2  0  0  0  0
  6 11  1  0  0  0  0
  8  7  1  0  0  0  0
  8 14  1  0  0  0  0
  9  4  1  0  0  0  0
 12  8  1  0  0  0  0
 13  8  1  0  0  0  0
M  END
