9
q = 0.0, confidence = 0.984

 41 41  0  0  0  0  0  0  0  0999 V2000
   -0.0991   -2.4414    2.7185 O   0  0  0  0  0  0  0  0  0  0  0  0
   -4.4181   -0.1644   -0.0278 O   0  0  0  0  0  0  0  0  0  0  0  0
   -1.9898   -3.1060    1.6221 O   0  0  0  0  0  0  0  0  0  0  0  0
   -2.1783   -0.3119   -0.5411 O   0  0  0  0  0  0  0  0  0  0  0  0
    0.7108   -3.8868    0.2513 N   0  0  0  0  0  0  0  0  0  0  0  0
   -0.0748   -3.0180   -1.5702 N   0  0  0  0  0  0  0  0  0  0  0  0
   -2.9489   -0.4547    1.6140 N   0  0  0  0  0  0  0  0  0  0  0  0
   -3.7894   -0.6082    2.1727 H   0  0  0  0  0  0  0  0  0  0  0  0
    0.7136   -2.7378   -0.4955 C   0  0  0  0  0  2  0  0  0  0  0  0
   -0.0799   -4.8588   -0.3391 C   0  0  0  0  0  0  0  0  0  0  0  0
   -0.2254   -5.8497    0.1005 H   0  0  0  0  0  0  0  0  0  0  0  0
   -0.5752   -4.3072   -1.4918 C   0  0  0  0  0  0  0  0  0  0  0  0
   -1.2308   -4.7273   -2.2601 H   0  0  0  0  0  0  0  0  0  0  0  0
    1.3571   -4.0210    1.5520 C   0  0  0  0  0  0  0  0  0  0  0  0
    2.1844   -3.2852    1.5834 H   0  0  0  0  0  0  0  0  0  0  0  0
    1.7948   -5.0363    1.6343 H   0  0  0  0  0  0  0  0  0  0  0  0
    0.3987   -3.7894    2.7195 C   0  0  0  0  0  0  0  0  0  0  0  0
   -0.4564   -4.4939    2.6800 H   0  0  0  0  0  0  0  0  0  0  0  0
    0.9447   -3.9217    3.6735 H   0  0  0  0  0  0  0  0  0  0  0  0
   -1.3081   -2.2361    2.1177 C   0  0  0  0  0  0  0  0  0  0  0  0
   -1.6588   -0.7526    2.1637 C   0  0  0  0  0  0  0  0  0  0  0  0
   -1.5863   -0.3925    3.2095 H   0  0  0  0  0  0  0  0  0  0  0  0
   -0.8868   -0.2054    1.5855 H   0  0  0  0  0  0  0  0  0  0  0  0
   -3.1194   -0.3155    0.2615 C   0  0  0  0  0  0  0  0  0  0  0  0
   -4.8904    0.1350   -1.4011 C   0  0  0  0  0  0  0  0  0  0  0  0
   -4.5604   -1.0367   -2.3291 C   0  0  0  0  0  0  0  0  0  0  0  0
   -3.4715   -1.1330   -2.4882 H   0  0  0  0  0  0  0  0  0  0  0  0
   -5.0454   -0.8766   -3.3120 H   0  0  0  0  0  0  0  0  0  0  0  0
   -4.9466   -1.9850   -1.9062 H   0  0  0  0  0  0  0  0  0  0  0  0
   -4.2796    1.4558   -1.8777 C   0  0  0  0  0  0  0  0  0  0  0  0
   -4.4968    2.2676   -1.1552 H   0  0  0  0  0  0  0  0  0  0  0  0
   -4.7246    1.7391   -2.8515 H   0  0  0  0  0  0  0  0  0  0  0  0
   -3.1847    1.3748   -2.0011 H   0  0  0  0  0  0  0  0  0  0  0  0
   -6.4013    0.2689   -1.2087 C   0  0  0  0  0  0  0  0  0  0  0  0
   -6.8309   -0.6734   -0.8166 H   0  0  0  0  0  0  0  0  0  0  0  0
   -6.8876    0.5003   -2.1758 H   0  0  0  0  0  0  0  0  0  0  0  0
   -6.6335    1.0838   -0.4958 H   0  0  0  0  0  0  0  0  0  0  0  0
   -0.4161   -2.0667   -2.6245 C   0  0  0  0  0  0  0  0  0  0  0  0
   -1.2719   -1.4491   -2.2891 H   0  0  0  0  0  0  0  0  0  0  0  0
   -0.6824   -2.6251   -3.5399 H   0  0  0  0  0  0  0  0  0  0  0  0
    0.4451   -1.4069   -2.8385 H   0  0  0  0  0  0  0  0  0  0  0  0
  1 17  1  0  0  0  0
  2 24  1  0  0  0  0
  3 20  2  0  0  0  0
  4 24  2  0  0  0  0
  5 14  1  0  0  0  0
  6 12  1  0  0  0  0
  6  9  1  0  0  0  0
  7 21  1  0  0  0  0
  7  8  1  0  0  0  0
  9  5  1  0  0  0  0
 10 11  1  0  0  0  0
 10  5  1  0  0  0  0
 12 10  2  0  0  0  0
 13 12  1  0  0  0  0
 14 15  1  0  0  0  0
 14 16  1  0  0  0  0
 14 17  1  0  0  0  0
 17 19  1  0  0  0  0
 18 17  1  0  0  0  0
 20 21  1  0  0  0  0
 20  1  1  0  0  0  0
 21 22  1  0  0  0  0
 23 21  1  0  0  0  0
 24  7  1  0  0  0  0
 25 34  1  0  0  0  0
 25  2  1  0  0  0  0
 26 29  1  0  0  0  0
 26 25  1  0  0  0  0
 27 26  1  0  0  0  0
 28 26  1  0  0  0  0
 30 25  1  0  0  0  0
 30 31  1  0  0  0  0
 32 30  1  0  0  0  0
 33 30  1  0  0  0  0
 34 35  1  0  0  0  0
 34 37  1  0  0  0  0
 36 34  1  0  0  0  0
 38 39  1  0  0  0  0
 38  6  1  0  0  0  0
 40 38  1  0  0  0  0
 41 38  1  0  0  0  0
M  END
