1
q = 0.0, confidence = 0.99

 10 10  0  0  0  0  0  0  0  0999 V2000
    2.0263   -0.0990   -0.0001 C   0  0  0  0  0  2  0  0  0  0  0  0
    2.8379    0.9521   -0.0003 N   0  0  0  0  0  0  0  0  0  0  0  0
    2.7278   -1.2284    0.0003 O   0  0  0  0  0  0  0  0  0  0  0  0
    4.2555    0.6031    0.0000 C   0  0  0  0  0  0  0  0  0  0  0  0
    4.1618   -0.9388    0.0005 C   0  0  0  0  0  0  0  0  0  0  0  0
    2.4279    1.9035   -0.0004 H   0  0  0  0  0  0  0  0  0  0  0  0
    4.7663    1.0074   -0.8983 H   0  0  0  0  0  0  0  0  0  0  0  0
    4.7661    1.0079    0.8982 H   0  0  0  0  0  0  0  0  0  0  0  0
    4.5972   -1.4117   -0.9007 H   0  0  0  0  0  0  0  0  0  0  0  0
    4.5968   -1.4111    0.9022 H   0  0  0  0  0  0  0  0  0  0  0  0
  1  3  1  0  0  0  0
  2  1  1  0  0  0  0
  2  4  1  0  0  0  0
  3  5  1  0  0  0  0
  4  5  1  0  0  0  0
  4  8  1  0  0  0  0
  5 10  1  0  0  0  0
  6  2  1  0  0  0  0
  7  4  1  0  0  0  0
  9  5  1  0  0  0  0
M  END
