2
q = 0.0, confidence = 0.996

 30 30  0  0  0  0  0  0  0  0999 V2000
    2.6309   -0.0329    0.1679 N   0  0  0  0  0  0  0  0  0  0  0  0
    1.5315   -0.4594    0.7446 C   0  0  0  0  0  2  0  0  0  0  0  0
    1.4978   -0.2283    1.8227 H   0  0  0  0  0  0  0  0  0  0  0  0
    2.9391   -0.3039   -1.3073 C   0  0  0  0  0  0  0  0  0  0  0  0
    3.7615    0.8707   -1.8812 C   0  0  0  0  0  0  0  0  0  0  0  0
    4.0429    0.5941   -2.9174 H   0  0  0  0  0  0  0  0  0  0  0  0
    3.0967    1.7592   -1.9608 H   0  0  0  0  0  0  0  0  0  0  0  0
    4.9859    1.2408   -1.0574 C   0  0  0  0  0  0  0  0  0  0  0  0
    5.5251    2.0882   -1.5280 H   0  0  0  0  0  0  0  0  0  0  0  0
    5.7066    0.3970   -1.0236 H   0  0  0  0  0  0  0  0  0  0  0  0
    4.5318    1.6221    0.3434 C   0  0  0  0  0  0  0  0  0  0  0  0
    3.8844    2.5243    0.2815 H   0  0  0  0  0  0  0  0  0  0  0  0
    5.3934    1.8938    0.9873 H   0  0  0  0  0  0  0  0  0  0  0  0
    3.7440    0.5171    1.0768 C   0  0  0  0  0  0  0  0  0  0  0  0
    3.6877   -1.6446   -1.4386 C   0  0  0  0  0  0  0  0  0  0  0  0
    4.7285   -1.5992   -1.0712 H   0  0  0  0  0  0  0  0  0  0  0  0
    3.7247   -1.9242   -2.5100 H   0  0  0  0  0  0  0  0  0  0  0  0
    3.1441   -2.4345   -0.8816 H   0  0  0  0  0  0  0  0  0  0  0  0
    1.6542   -0.3965   -2.1405 C   0  0  0  0  0  0  0  0  0  0  0  0
    1.0569   -1.3015   -1.9086 H   0  0  0  0  0  0  0  0  0  0  0  0
    1.9471   -0.4484   -3.2078 H   0  0  0  0  0  0  0  0  0  0  0  0
    1.0064    0.4899   -2.0130 H   0  0  0  0  0  0  0  0  0  0  0  0
    4.6469   -0.6554    1.5086 C   0  0  0  0  0  0  0  0  0  0  0  0
    5.2684   -0.3399    2.3698 H   0  0  0  0  0  0  0  0  0  0  0  0
    5.3309   -0.9908    0.7088 H   0  0  0  0  0  0  0  0  0  0  0  0
    4.0262   -1.5226    1.8111 H   0  0  0  0  0  0  0  0  0  0  0  0
    3.1444    1.1613    2.3403 C   0  0  0  0  0  0  0  0  0  0  0  0
    3.9510    1.7321    2.8410 H   0  0  0  0  0  0  0  0  0  0  0  0
    2.7774    0.4198    3.0754 H   0  0  0  0  0  0  0  0  0  0  0  0
    2.3280    1.8684    2.0964 H   0  0  0  0  0  0  0  0  0  0  0  0
  1  2  1  0  0  0  0
  1 14  1  0  0  0  0
  2  3  1  0  0  0  0
  4  1  1  0  0  0  0
  5  4  1  0  0  0  0
  5  8  1  0  0  0  0
  6  5  1  0  0  0  0
  7  5  1  0  0  0  0
  8 10  1  0  0  0  0
  8 11  1  0  0  0  0
  9  8  1  0  0  0  0
 11 13  1  0  0  0  0
 11 14  1  0  0  0  0
 12 11  1  0  0  0  0
 14 23  1  0  0  0  0
 14 27  1  0  0  0  0
 15  4  1  0  0  0  0
 15 16  1  0  0  0  0
 15 18  1  0  0  0  0
 17 15  1  0  0  0  0
 19 22  1  0  0  0  0
 19 20  1  0  0  0  0
 19  4  1  0  0  0  0
 21 19  1  0  0  0  0
 23 26  1  0  0  0  0
 23 24  1  0  0  0  0
 25 23  1  0  0  0  0
 27 28  1  0  0  0  0
 27 29  1  0  0  0  0
 30 27  1  0  0  0  0
M  END
