9
q = 0.0, confidence = 0.968

 22 22  0  0  1  0  0  0  0  0999 V2000
    1.4200   -1.2550    1.3723 O   0  0  0  0  0  0  0  0  0  0  0  0
    2.3214   -1.1970    1.7440 H   0  0  0  0  0  0  0  0  0  0  0  0
    1.9567    2.1260    0.7543 O   0  0  0  0  0  0  0  0  0  0  0  0
    2.1156    2.2380   -0.2062 H   0  0  0  0  0  0  0  0  0  0  0  0
    2.8310    0.5417   -1.4098 O   0  0  0  0  0  0  0  0  0  0  0  0
    3.6881   -0.7854    0.2164 O   0  0  0  0  0  0  0  0  0  0  0  0
    0.2924   -0.7795   -0.6481 C   0  0  0  0  0  3  0  0  0  0  0  0
   -0.2332    0.1173   -1.6410 C   0  0  0  0  0  3  0  0  0  0  0  0
   -0.5861    1.4049   -1.1509 C   0  0  0  0  0  3  0  0  0  0  0  0
   -0.3600    1.5882    0.2597 C   0  0  0  0  0  3  0  0  0  0  0  0
    0.9477    1.1342    0.8811 C   0  0  1  0  0  0  0  0  0  0  0  0
    0.8168    0.9855    1.9713 H   0  0  0  0  0  0  0  0  0  0  0  0
    1.3436   -0.2989    0.3351 C   0  0  1  0  0  0  0  0  0  0  0  0
    2.6827   -0.1355   -0.4075 C   0  0  0  0  0  0  0  0  0  0  0  0
    4.9949   -0.6050   -0.3538 C   0  0  0  0  0  0  0  0  0  0  0  0
    5.0062   -0.9411   -1.4092 H   0  0  0  0  0  0  0  0  0  0  0  0
    5.6829   -1.2143    0.2575 H   0  0  0  0  0  0  0  0  0  0  0  0
    5.2837    0.4642   -0.3201 H   0  0  0  0  0  0  0  0  0  0  0  0
    0.3995   -1.8440   -0.9094 H   0  0  0  0  0  0  0  0  0  0  0  0
   -0.4543   -0.1920   -2.6729 H   0  0  0  0  0  0  0  0  0  0  0  0
   -1.0945    2.1455   -1.7861 H   0  0  0  0  0  0  0  0  0  0  0  0
   -0.7802    2.4959    0.7233 H   0  0  0  0  0  0  0  0  0  0  0  0
  1  2  1  0  0  0  0
  3 11  1  0  0  0  0
  4  3  1  0  0  0  0
  5 14  2  0  0  0  0
  7 13  1  0  0  0  0
  8  9  1  0  0  0  0
  8  7  1  0  0  0  0
  9 10  1  0  0  0  0
 10 22  1  0  0  0  0
 10 11  1  0  0  0  0
 11 12  1  1  0  0  0
 13 14  1  6  0  0  0
 13 11  1  0  0  0  0
 13  1  1  0  0  0  0
 14  6  1  0  0  0  0
 15 18  1  0  0  0  0
 15  6  1  0  0  0  0
 15 17  1  0  0  0  0
 16 15  1  0  0  0  0
 19  7  1  0  0  0  0
 20  8  1  0  0  0  0
 21  9  1  0  0  0  0
M  END
