1
q = -1.0, confidence = 0.03

 25 25  0  0  1  0  0  0  0  0999 V2000
    0.7494   -0.4643    1.2739 C   0  0  1  0  0  3  0  0  0  0  0  0
    1.1252    0.9035    0.9556 C   0  0  2  0  0  3  0  0  0  0  0  0
    2.2501    0.8646   -0.0097 C   0  0  0  0  0  0  0  0  0  0  0  0
    2.3849   -0.5733   -0.5048 C   0  0  2  0  0  0  0  0  0  0  0  0
    1.1595   -1.2556    0.1286 C   0  0  1  0  0  3  0  0  0  0  0  0
    0.4111   -0.9888    2.6423 C   0  0  0  0  0  0  0  0  0  0  0  0
    0.9337    2.0743    1.8788 C   0  0  0  0  0  0  0  0  0  0  0  0
    3.0616    1.8948   -0.3340 C   0  0  0  0  0  0  0  0  0  0  0  0
    3.7043   -1.2128   -0.0339 C   0  0  0  0  0  0  0  0  0  0  0  0
    1.0301   -2.7553    0.0802 C   0  0  0  0  0  0  0  0  0  0  0  0
    2.3563   -0.6216   -1.6138 H   0  0  0  0  0  0  0  0  0  0  0  0
   -0.1272   -1.9548    2.5998 H   0  0  0  0  0  0  0  0  0  0  0  0
   -0.2006   -0.2790    3.2318 H   0  0  0  0  0  0  0  0  0  0  0  0
    1.3523   -1.1621    3.2099 H   0  0  0  0  0  0  0  0  0  0  0  0
    0.0419    1.9560    2.5237 H   0  0  0  0  0  0  0  0  0  0  0  0
    0.8117    3.0157    1.3064 H   0  0  0  0  0  0  0  0  0  0  0  0
    1.8234    2.2042    2.5337 H   0  0  0  0  0  0  0  0  0  0  0  0
    2.9167    2.9008    0.0865 H   0  0  0  0  0  0  0  0  0  0  0  0
    3.8889    1.7646   -1.0484 H   0  0  0  0  0  0  0  0  0  0  0  0
    4.5695   -0.6418   -0.4246 H   0  0  0  0  0  0  0  0  0  0  0  0
    3.8016   -2.2585   -0.3898 H   0  0  0  0  0  0  0  0  0  0  0  0
    3.7749   -1.2129    1.0739 H   0  0  0  0  0  0  0  0  0  0  0  0
    1.0712   -3.1202   -0.9662 H   0  0  0  0  0  0  0  0  0  0  0  0
    0.0749   -3.1028    0.5196 H   0  0  0  0  0  0  0  0  0  0  0  0
    1.8567   -3.2508    0.6352 H   0  0  0  0  0  0  0  0  0  0  0  0
  1  6  1  1  0  0  0
  2  1  1  0  0  0  0
  2  7  1  1  0  0  0
  3  2  1  0  0  0  0
  4 11  1  6  0  0  0
  4  9  1  0  0  0  0
  4  3  1  0  0  0  0
  4  5  1  0  0  0  0
  5 10  1  1  0  0  0
  5  1  1  0  0  0  0
  6 14  1  0  0  0  0
  6 13  1  0  0  0  0
  7 15  1  0  0  0  0
  7 17  1  0  0  0  0
  8  3  2  0  0  0  0
  8 18  1  0  0  0  0
  9 22  1  0  0  0  0
 10 24  1  0  0  0  0
 10 25  1  0  0  0  0
 12  6  1  0  0  0  0
 16  7  1  0  0  0  0
 19  8  1  0  0  0  0
 20  9  1  0  0  0  0
 21  9  1  0  0  0  0
 23 10  1  0  0  0  0
M  END
