1
q = 0.0, confidence = 0.93

 30 31  0  0  1  0  0  0  0  0999 V2000
    1.2987   -0.1391   -0.0930 C   0  0  0  0  0  3  0  0  0  0  0  0
    0.0352   -0.1273   -0.1481 C   0  0  0  0  0  0  0  0  0  0  0  0
   -1.3398   -0.0652   -0.2071 C   0  0  1  0  0  3  0  0  0  0  0  0
   -2.0091    1.2612   -0.2070 C   0  0  0  0  0  0  0  0  0  0  0  0
   -1.4204    2.3194    0.5225 C   0  0  0  0  0  0  0  0  0  0  0  0
   -1.9953    3.5954    0.5111 C   0  0  0  0  0  0  0  0  0  0  0  0
   -3.1528    3.8414   -0.2456 C   0  0  0  0  0  0  0  0  0  0  0  0
   -3.7289    2.8030   -0.9959 C   0  0  0  0  0  0  0  0  0  0  0  0
   -3.1680    1.5207   -0.9751 C   0  0  0  0  0  0  0  0  0  0  0  0
   -2.0642   -1.2236   -0.3230 N   0  0  0  0  0  0  0  0  0  0  0  0
   -1.3246   -2.4736   -0.5202 C   0  0  0  0  0  0  0  0  0  0  0  0
   -3.4532   -1.3126    0.0048 C   0  0  0  0  0  0  0  0  0  0  0  0
   -3.9374   -0.7404    1.1976 C   0  0  0  0  0  0  0  0  0  0  0  0
   -5.2996   -0.8301    1.5111 C   0  0  0  0  0  0  0  0  0  0  0  0
   -6.1841   -1.5013    0.6516 C   0  0  0  0  0  0  0  0  0  0  0  0
   -5.6972   -2.0862   -0.5285 C   0  0  0  0  0  0  0  0  0  0  0  0
   -4.3377   -1.9925   -0.8558 C   0  0  0  0  0  0  0  0  0  0  0  0
   -0.5006    2.1242    1.0938 H   0  0  0  0  0  0  0  0  0  0  0  0
   -1.5311    4.4062    1.0923 H   0  0  0  0  0  0  0  0  0  0  0  0
   -3.6013    4.8462   -0.2591 H   0  0  0  0  0  0  0  0  0  0  0  0
   -4.6227    2.9945   -1.6084 H   0  0  0  0  0  0  0  0  0  0  0  0
   -3.6224    0.7200   -1.5746 H   0  0  0  0  0  0  0  0  0  0  0  0
   -2.0391   -3.2916   -0.7143 H   0  0  0  0  0  0  0  0  0  0  0  0
   -0.7299   -2.7160    0.3858 H   0  0  0  0  0  0  0  0  0  0  0  0
   -0.6171   -2.3708   -1.3653 H   0  0  0  0  0  0  0  0  0  0  0  0
   -3.2394   -0.2264    1.8732 H   0  0  0  0  0  0  0  0  0  0  0  0
   -5.6703   -0.3798    2.4441 H   0  0  0  0  0  0  0  0  0  0  0  0
   -7.2525   -1.5728    0.9037 H   0  0  0  0  0  0  0  0  0  0  0  0
   -6.3833   -2.6129   -1.2086 H   0  0  0  0  0  0  0  0  0  0  0  0
   -3.9606   -2.4280   -1.7930 H   0  0  0  0  0  0  0  0  0  0  0  0
  2  1  3  0  0  0  0
  3  4  1  0  0  0  0
  3  2  1  6  0  0  0
  4  5  1  0  0  0  0
  5 18  1  0  0  0  0
  6  5  2  0  0  0  0
  6 19  1  0  0  0  0
  7  6  1  0  0  0  0
  8  9  1  0  0  0  0
  8  7  2  0  0  0  0
  9  4  2  0  0  0  0
 10  3  1  0  0  0  0
 10 12  1  0  0  0  0
 11 10  1  0  0  0  0
 11 24  1  0  0  0  0
 12 13  1  0  0  0  0
 13 14  2  0  0  0  0
 13 26  1  0  0  0  0
 14 27  1  0  0  0  0
 15 28  1  0  0  0  0
 15 14  1  0  0  0  0
 16 15  2  0  0  0  0
 17 16  1  0  0  0  0
 17 12  2  0  0  0  0
 20  7  1  0  0  0  0
 21  8  1  0  0  0  0
 22  9  1  0  0  0  0
 23 11  1  0  0  0  0
 25 11  1  0  0  0  0
 29 16  1  0  0  0  0
 30 17  1  0  0  0  0
M  END
