6
q = 0.0, confidence = 0.716

 33 33  0  0  1  0  0  0  0  0999 V2000
   -1.2589    1.8273   -0.4350 O   0  0  0  0  0  0  0  0  0  0  0  0
   -1.9582    1.9602    0.2682 H   0  0  0  0  0  0  0  0  0  0  0  0
    1.1042    2.0799   -0.0873 C   0  0  0  0  0  0  0  0  0  0  0  0
   -0.2132    2.8047   -0.1746 C   0  0  1  0  0  0  0  0  0  0  0  0
   -0.4431    3.2537    0.8187 H   0  0  0  0  0  0  0  0  0  0  0  0
    1.1121    0.7782    0.5884 C   0  0  0  0  0  2  0  0  0  0  0  0
    2.0804    2.8182   -0.6821 C   0  0  0  0  0  0  0  0  0  0  0  0
    3.1426    2.5354   -0.7301 H   0  0  0  0  0  0  0  0  0  0  0  0
    2.3738    0.3373    1.2730 C   0  0  0  0  0  0  0  0  0  0  0  0
    3.2444    0.5763    0.6202 H   0  0  0  0  0  0  0  0  0  0  0  0
    2.3619   -0.7543    1.4329 H   0  0  0  0  0  0  0  0  0  0  0  0
   -0.0271    3.9146   -1.2534 C   0  0  0  0  0  0  0  0  0  0  0  0
   -0.7683    5.2025   -0.8751 C   0  0  0  0  0  0  0  0  0  0  0  0
   -1.8638    5.0298   -0.8343 H   0  0  0  0  0  0  0  0  0  0  0  0
   -0.5834    6.0049   -1.6185 H   0  0  0  0  0  0  0  0  0  0  0  0
   -0.4470    5.5775    0.1183 H   0  0  0  0  0  0  0  0  0  0  0  0
    1.5309    4.0958   -1.2605 C   0  0  0  0  0  0  0  0  0  0  0  0
    1.9243    4.3242   -2.2757 H   0  0  0  0  0  0  0  0  0  0  0  0
    1.8244    4.9629   -0.6233 H   0  0  0  0  0  0  0  0  0  0  0  0
   -0.5006    3.4237   -2.6298 C   0  0  0  0  0  0  0  0  0  0  0  0
    0.0398    2.5097   -2.9406 H   0  0  0  0  0  0  0  0  0  0  0  0
   -0.3201    4.2068   -3.3938 H   0  0  0  0  0  0  0  0  0  0  0  0
   -1.5822    3.1884   -2.6187 H   0  0  0  0  0  0  0  0  0  0  0  0
    3.8197    0.5942    3.3620 C   0  0  0  0  0  0  0  0  0  0  0  0
    3.7910   -0.5100    3.4939 H   0  0  0  0  0  0  0  0  0  0  0  0
    4.7028    0.7971    2.7141 H   0  0  0  0  0  0  0  0  0  0  0  0
    2.5465    1.0347    2.6354 C   0  0  0  0  0  0  0  0  0  0  0  0
    1.6564    0.8001    3.2571 H   0  0  0  0  0  0  0  0  0  0  0  0
    2.5528    2.1387    2.4952 H   0  0  0  0  0  0  0  0  0  0  0  0
    4.0048    1.2727    4.7195 C   0  0  0  0  0  0  0  0  0  0  0  0
    3.1495    1.0574    5.3931 H   0  0  0  0  0  0  0  0  0  0  0  0
    4.0693    2.3761    4.6138 H   0  0  0  0  0  0  0  0  0  0  0  0
    4.9283    0.9307    5.2296 H   0  0  0  0  0  0  0  0  0  0  0  0
  1  4  1  0  0  0  0
  1  2  1  0  0  0  0
  3  6  1  0  0  0  0
  4  3  1  0  0  0  0
  4  5  1  1  0  0  0
  6  9  1  0  0  0  0
  7  3  2  0  0  0  0
  8  7  1  0  0  0  0
  9 11  1  0  0  0  0
  9 27  1  0  0  0  0
 10  9  1  0  0  0  0
 12 13  1  0  0  0  0
 12  4  1  0  0  0  0
 13 14  1  0  0  0  0
 13 16  1  0  0  0  0
 15 13  1  0  0  0  0
 17 12  1  0  0  0  0
 17  7  1  0  0  0  0
 17 19  1  0  0  0  0
 18 17  1  0  0  0  0
 20 23  1  0  0  0  0
 20 12  1  0  0  0  0
 21 20  1  0  0  0  0
 22 20  1  0  0  0  0
 24 25  1  0  0  0  0
 24 30  1  0  0  0  0
 26 24  1  0  0  0  0
 27 28  1  0  0  0  0
 27 24  1  0  0  0  0
 29 27  1  0  0  0  0
 30 33  1  0  0  0  0
 30 31  1  0  0  0  0
 32 30  1  0  0  0  0
M  END
