1
q = -1.0, confidence = 0.0

 25 26  0  0  0  0  0  0  0  0999 V2000
    1.1951   -0.6176   -0.8201 C   0  0  0  0  0  3  0  0  0  0  0  0
    1.1944   -0.7212   -1.9229 H   0  0  0  0  0  0  0  0  0  0  0  0
    2.3956   -0.3710   -0.2286 C   0  0  0  0  0  0  0  0  0  0  0  0
    3.6307   -0.1421   -1.0299 C   0  0  0  0  0  0  0  0  0  0  0  0
    4.9046   -0.3521   -0.4497 C   0  0  0  0  0  0  0  0  0  0  0  0
    4.9704   -0.6872    0.5956 H   0  0  0  0  0  0  0  0  0  0  0  0
    6.0785   -0.1502   -1.1885 C   0  0  0  0  0  0  0  0  0  0  0  0
    7.0555   -0.3262   -0.7137 H   0  0  0  0  0  0  0  0  0  0  0  0
    6.0126    0.2736   -2.5244 C   0  0  0  0  0  0  0  0  0  0  0  0
    6.9343    0.4382   -3.1020 H   0  0  0  0  0  0  0  0  0  0  0  0
    4.7574    0.4964   -3.1152 C   0  0  0  0  0  0  0  0  0  0  0  0
    4.6928    0.8423   -4.1581 H   0  0  0  0  0  0  0  0  0  0  0  0
    3.5855    0.2959   -2.3764 C   0  0  0  0  0  0  0  0  0  0  0  0
    2.6140    0.4969   -2.8536 H   0  0  0  0  0  0  0  0  0  0  0  0
    2.5404   -0.3423    1.2571 C   0  0  0  0  0  0  0  0  0  0  0  0
    2.4064   -1.5354    2.0010 C   0  0  0  0  0  0  0  0  0  0  0  0
    2.2198   -2.4762    1.4618 H   0  0  0  0  0  0  0  0  0  0  0  0
    2.5277   -1.5261    3.3980 C   0  0  0  0  0  0  0  0  0  0  0  0
    2.4286   -2.4642    3.9652 H   0  0  0  0  0  0  0  0  0  0  0  0
    2.7786   -0.3200    4.0713 C   0  0  0  0  0  0  0  0  0  0  0  0
    2.8658   -0.3080    5.1680 H   0  0  0  0  0  0  0  0  0  0  0  0
    2.9308    0.8690    3.3388 C   0  0  0  0  0  0  0  0  0  0  0  0
    3.1334    1.8156    3.8622 H   0  0  0  0  0  0  0  0  0  0  0  0
    2.8269    0.8570    1.9411 C   0  0  0  0  0  0  0  0  0  0  0  0
    2.9488    1.7870    1.3684 H   0  0  0  0  0  0  0  0  0  0  0  0
  1  3  2  0  0  0  0
  2  1  1  0  0  0  0
  3 15  1  0  0  0  0
  4  5  1  0  0  0  0
  4  3  1  0  0  0  0
  5  6  1  0  0  0  0
  7  8  1  0  0  0  0
  7  5  2  0  0  0  0
  9  7  1  0  0  0  0
 10  9  1  0  0  0  0
 11  9  2  0  0  0  0
 11 13  1  0  0  0  0
 12 11  1  0  0  0  0
 13  4  2  0  0  0  0
 14 13  1  0  0  0  0
 15 24  2  0  0  0  0
 15 16  1  0  0  0  0
 16 18  2  0  0  0  0
 17 16  1  0  0  0  0
 18 19  1  0  0  0  0
 18 20  1  0  0  0  0
 20 21  1  0  0  0  0
 22 23  1  0  0  0  0
 22 20  2  0  0  0  0
 24 22  1  0  0  0  0
 25 24  1  0  0  0  0
M  END
