14
q = 0.0, confidence = 0.994

 50 53  0  0  0  0  0  0  0  0999 V2000
   -0.4458    0.7879   -0.0678 P   0  0  0  0  0  0  0  0  0  0  0  0
   -1.6775   -0.5389   -0.3424 C   0  0  0  0  0  0  0  0  0  0  0  0
   -2.7420   -0.4449   -1.2470 C   0  0  0  0  0  0  0  0  0  0  0  0
   -2.8539    0.6053   -2.0730 F   0  0  0  0  0  0  0  0  0  0  0  0
   -3.7293   -1.4436   -1.3028 C   0  0  0  0  0  0  0  0  0  0  0  0
   -4.7491   -1.3474   -2.1556 F   0  0  0  0  0  0  0  0  0  0  0  0
   -3.6439   -2.5422   -0.4306 C   0  0  0  0  0  0  0  0  0  0  0  0
   -4.5782   -3.4894   -0.4687 F   0  0  0  0  0  0  0  0  0  0  0  0
   -2.5715   -2.6396    0.4745 C   0  0  0  0  0  0  0  0  0  0  0  0
   -2.5105   -3.7099    1.2763 F   0  0  0  0  0  0  0  0  0  0  0  0
   -1.5738   -1.6545    0.5249 C   0  0  0  0  0  0  0  0  0  0  0  0
   -0.4300   -1.8308    1.4637 C   0  0  0  0  0  3  0  0  0  0  0  0
   -0.6819   -2.2038    2.4705 H   0  0  0  0  0  0  0  0  0  0  0  0
    0.9096   -1.9959    1.0422 C   0  0  0  0  0  3  0  0  0  0  0  0
    1.6138   -2.3949    1.7928 H   0  0  0  0  0  0  0  0  0  0  0  0
    1.3591   -2.0293   -0.3971 C   0  0  0  0  0  0  0  0  0  0  0  0
    0.5922   -2.4238   -1.2775 O   0  0  0  0  0  0  0  0  0  0  0  0
    2.7472   -1.5736   -0.6999 C   0  0  0  0  0  0  0  0  0  0  0  0
    3.6103   -1.0419    0.2866 C   0  0  0  0  0  0  0  0  0  0  0  0
    3.2959   -0.9755    1.3403 H   0  0  0  0  0  0  0  0  0  0  0  0
    4.8777   -0.5685   -0.0777 C   0  0  0  0  0  0  0  0  0  0  0  0
    5.5401   -0.1457    0.6921 H   0  0  0  0  0  0  0  0  0  0  0  0
    5.2966   -0.6291   -1.4168 C   0  0  0  0  0  0  0  0  0  0  0  0
    6.2926   -0.2533   -1.6978 H   0  0  0  0  0  0  0  0  0  0  0  0
    4.4476   -1.1707   -2.3989 C   0  0  0  0  0  0  0  0  0  0  0  0
    4.7777   -1.2189   -3.4476 H   0  0  0  0  0  0  0  0  0  0  0  0
    3.1806   -1.6398   -2.0423 C   0  0  0  0  0  0  0  0  0  0  0  0
    2.4872   -2.0553   -2.7875 H   0  0  0  0  0  0  0  0  0  0  0  0
   -1.4289    2.3084    0.1609 C   0  0  0  0  0  0  0  0  0  0  0  0
   -2.0796    2.5063    1.3954 C   0  0  0  0  0  0  0  0  0  0  0  0
   -1.9370    1.7854    2.2149 H   0  0  0  0  0  0  0  0  0  0  0  0
   -2.8852    3.6365    1.5800 C   0  0  0  0  0  0  0  0  0  0  0  0
   -3.3888    3.7947    2.5452 H   0  0  0  0  0  0  0  0  0  0  0  0
   -3.0340    4.5730    0.5428 C   0  0  0  0  0  0  0  0  0  0  0  0
   -3.6608    5.4649    0.6941 H   0  0  0  0  0  0  0  0  0  0  0  0
   -2.3782    4.3774   -0.6822 C   0  0  0  0  0  0  0  0  0  0  0  0
   -2.4907    5.1119   -1.4937 H   0  0  0  0  0  0  0  0  0  0  0  0
   -1.5750    3.2441   -0.8796 C   0  0  0  0  0  0  0  0  0  0  0  0
   -1.0627    3.0866   -1.8399 H   0  0  0  0  0  0  0  0  0  0  0  0
    0.5669    1.0059   -1.5652 C   0  0  0  0  0  0  0  0  0  0  0  0
    1.7002    1.8426   -1.4545 C   0  0  0  0  0  0  0  0  0  0  0  0
    1.9283    2.3233   -0.4891 H   0  0  0  0  0  0  0  0  0  0  0  0
    2.5283    2.0329   -2.5677 C   0  0  0  0  0  0  0  0  0  0  0  0
    3.4153    2.6777   -2.4797 H   0  0  0  0  0  0  0  0  0  0  0  0
    2.2364    1.3928   -3.7837 C   0  0  0  0  0  0  0  0  0  0  0  0
    2.8932    1.5405   -4.6542 H   0  0  0  0  0  0  0  0  0  0  0  0
    1.1180    0.5514   -3.8858 C   0  0  0  0  0  0  0  0  0  0  0  0
    0.8958    0.0376   -4.8330 H   0  0  0  0  0  0  0  0  0  0  0  0
    0.2812    0.3496   -2.7782 C   0  0  0  0  0  0  0  0  0  0  0  0
   -0.5759   -0.3319   -2.8563 H   0  0  0  0  0  0  0  0  0  0  0  0
  1 29  1  0  0  0  0
  2  1  1  0  0  0  0
  2 11  1  0  0  0  0
  3  2  2  0  0  0  0
  4  3  1  0  0  0  0
  5  3  1  0  0  0  0
  5  7  2  0  0  0  0
  6  5  1  0  0  0  0
  7  9  1  0  0  0  0
  8  7  1  0  0  0  0
  9 11  2  0  0  0  0
  9 10  1  0  0  0  0
 11 12  1  0  0  0  0
 12 13  1  0  0  0  0
 14 12  1  0  0  0  0
 14 15  1  0  0  0  0
 16 14  1  0  0  0  0
 17 16  2  0  0  0  0
 18 16  1  0  0  0  0
 18 19  1  0  0  0  0
 19 20  1  0  0  0  0
 21 19  2  0  0  0  0
 21 22  1  0  0  0  0
 23 21  1  0  0  0  0
 24 23  1  0  0  0  0
 25 27  1  0  0  0  0
 25 23  2  0  0  0  0
 26 25  1  0  0  0  0
 27 18  2  0  0  0  0
 28 27  1  0  0  0  0
 29 30  1  0  0  0  0
 30 32  2  0  0  0  0
 30 31  1  0  0  0  0
 32 33  1  0  0  0  0
 34 35  1  0  0  0  0
 34 32  1  0  0  0  0
 36 34  2  0  0  0  0
 37 36  1  0  0  0  0
 38 36  1  0  0  0  0
 38 29  2  0  0  0  0
 39 38  1  0  0  0  0
 40 41  1  0  0  0  0
 40  1  1  0  0  0  0
 41 42  1  0  0  0  0
 43 44  1  0  0  0  0
 43 41  2  0  0  0  0
 45 43  1  0  0  0  0
 46 45  1  0  0  0  0
 47 45  2  0  0  0  0
 47 49  1  0  0  0  0
 48 47  1  0  0  0  0
 49 40  2  0  0  0  0
 50 49  1  0  0  0  0
M  END
