1
q = 0.0, confidence = 0.99

 41 43  0  0  0  0  0  0  0  0999 V2000
    0.6293   -2.3141   -0.1891 C   0  0  0  0  0  3  0  0  0  0  0  0
    0.7304   -3.1715    0.4972 H   0  0  0  0  0  0  0  0  0  0  0  0
   -0.1610   -2.5103   -1.3478 C   0  0  0  0  0  3  0  0  0  0  0  0
   -0.6947   -3.4753   -1.3898 H   0  0  0  0  0  0  0  0  0  0  0  0
   -0.4007    0.5240   -0.0277 P   0  0  0  0  0  0  0  0  0  0  0  0
    1.3889    0.1162   -0.1489 C   0  0  0  0  0  0  0  0  0  0  0  0
    2.4227    1.0626   -0.0993 C   0  0  0  0  0  0  0  0  0  0  0  0
    3.7655    0.6620   -0.0019 C   0  0  0  0  0  0  0  0  0  0  0  0
    4.0699   -0.7095    0.0564 C   0  0  0  0  0  0  0  0  0  0  0  0
    3.0358   -1.6613    0.0000 C   0  0  0  0  0  0  0  0  0  0  0  0
    1.6907   -1.2698   -0.1043 C   0  0  0  0  0  0  0  0  0  0  0  0
    2.1562    2.3768   -0.1270 F   0  0  0  0  0  0  0  0  0  0  0  0
    4.7448    1.5643    0.0567 F   0  0  0  0  0  0  0  0  0  0  0  0
    5.3385   -1.0999    0.1558 F   0  0  0  0  0  0  0  0  0  0  0  0
    3.3640   -2.9586    0.0409 F   0  0  0  0  0  0  0  0  0  0  0  0
   -0.0604   -1.7599   -2.6409 C   0  0  0  0  0  0  0  0  0  0  0  0
    0.5273   -0.8264   -2.5696 H   0  0  0  0  0  0  0  0  0  0  0  0
   -1.0662   -1.5110   -3.0350 H   0  0  0  0  0  0  0  0  0  0  0  0
    0.4238   -2.4176   -3.3961 H   0  0  0  0  0  0  0  0  0  0  0  0
   -0.8989    1.5047   -1.4840 C   0  0  0  0  0  0  0  0  0  0  0  0
   -2.2833    1.7331   -1.6503 C   0  0  0  0  0  0  0  0  0  0  0  0
   -2.9917    1.3205   -0.9123 H   0  0  0  0  0  0  0  0  0  0  0  0
   -2.7360    2.4616   -2.7586 C   0  0  0  0  0  0  0  0  0  0  0  0
   -3.8145    2.6376   -2.8869 H   0  0  0  0  0  0  0  0  0  0  0  0
   -1.8221    2.9543   -3.7050 C   0  0  0  0  0  0  0  0  0  0  0  0
   -2.1831    3.5218   -4.5762 H   0  0  0  0  0  0  0  0  0  0  0  0
   -0.4479    2.7179   -3.5435 C   0  0  0  0  0  0  0  0  0  0  0  0
    0.2705    3.0997   -4.2844 H   0  0  0  0  0  0  0  0  0  0  0  0
    0.0179    1.9943   -2.4354 C   0  0  0  0  0  0  0  0  0  0  0  0
    1.0958    1.8172   -2.3157 H   0  0  0  0  0  0  0  0  0  0  0  0
   -0.5210    1.6283    1.4236 C   0  0  0  0  0  0  0  0  0  0  0  0
   -0.5678    3.0271    1.2760 C   0  0  0  0  0  0  0  0  0  0  0  0
   -0.5700    3.4776    0.2727 H   0  0  0  0  0  0  0  0  0  0  0  0
   -0.6154    3.8422    2.4168 C   0  0  0  0  0  0  0  0  0  0  0  0
   -0.6569    4.9358    2.3025 H   0  0  0  0  0  0  0  0  0  0  0  0
   -0.6121    3.2660    3.6964 C   0  0  0  0  0  0  0  0  0  0  0  0
   -0.6529    3.9090    4.5886 H   0  0  0  0  0  0  0  0  0  0  0  0
   -0.5676    1.8690    3.8404 C   0  0  0  0  0  0  0  0  0  0  0  0
   -0.5798    1.4148    4.8423 H   0  0  0  0  0  0  0  0  0  0  0  0
   -0.5282    1.0466    2.7075 C   0  0  0  0  0  0  0  0  0  0  0  0
   -0.5268   -0.0488    2.8150 H   0  0  0  0  0  0  0  0  0  0  0  0
  1 11  1  0  0  0  0
  1  2  1  0  0  0  0
  3  1  1  0  0  0  0
  4  3  1  0  0  0  0
  5 31  1  0  0  0  0
  6 11  2  0  0  0  0
  6  7  1  0  0  0  0
  6  5  1  0  0  0  0
  7  8  2  0  0  0  0
  8  9  1  0  0  0  0
  8 13  1  0  0  0  0
  9 14  1  0  0  0  0
 10 15  1  0  0  0  0
 10  9  2  0  0  0  0
 11 10  1  0  0  0  0
 12  7  1  0  0  0  0
 16 17  1  0  0  0  0
 16  3  1  0  0  0  0
 18 16  1  0  0  0  0
 19 16  1  0  0  0  0
 20  5  1  0  0  0  0
 21 20  1  0  0  0  0
 21 22  1  0  0  0  0
 23 21  2  0  0  0  0
 24 23  1  0  0  0  0
 25 27  2  0  0  0  0
 25 23  1  0  0  0  0
 26 25  1  0  0  0  0
 27 29  1  0  0  0  0
 28 27  1  0  0  0  0
 29 30  1  0  0  0  0
 29 20  2  0  0  0  0
 31 40  1  0  0  0  0
 32 31  2  0  0  0  0
 32 34  1  0  0  0  0
 33 32  1  0  0  0  0
 34 36  2  0  0  0  0
 35 34  1  0  0  0  0
 36 38  1  0  0  0  0
 36 37  1  0  0  0  0
 38 39  1  0  0  0  0
 40 41  1  0  0  0  0
 40 38  2  0  0  0  0
M  END
