9
q = 0.0, confidence = 0.94

 56 57  0  0  1  0  0  0  0  0999 V2000
   -0.5249    2.0951   -0.1478 O   0  0  0  0  0  0  0  0  0  0  0  0
   -1.0696    3.4196   -0.0681 C   0  0  0  0  0  0  0  0  0  0  0  0
   -1.2552    3.6584    0.9995 H   0  0  0  0  0  0  0  0  0  0  0  0
   -2.0421    3.4525   -0.5951 H   0  0  0  0  0  0  0  0  0  0  0  0
   -0.0671    4.3765   -0.6821 C   0  0  0  0  0  0  0  0  0  0  0  0
   -0.4481    5.4143   -0.6133 H   0  0  0  0  0  0  0  0  0  0  0  0
    0.1040    4.1370   -1.7501 H   0  0  0  0  0  0  0  0  0  0  0  0
    0.9056    4.3258   -0.1540 H   0  0  0  0  0  0  0  0  0  0  0  0
   -1.2444    0.9880    0.0452 C   0  0  0  0  0  3  0  0  0  0  0  0
   -0.4233   -0.1821   -0.0049 C   0  0  0  0  0  0  0  0  0  0  0  0
   -0.9564   -1.1195    0.1723 H   0  0  0  0  0  0  0  0  0  0  0  0
    0.9499   -0.3073   -0.2635 C   0  0  1  0  0  3  0  0  0  0  0  0
    1.8092    0.7578   -0.6660 C   0  0  0  0  0  0  0  0  0  0  0  0
    2.6979    1.5538   -0.9604 C   0  0  0  0  0  0  0  0  0  0  0  0
    3.8075    2.4740   -1.2446 C   0  0  0  0  0  0  0  0  0  0  0  0
    4.0998    3.2921    0.0375 C   0  0  0  0  0  0  0  0  0  0  0  0
    4.9466    3.9845   -0.1462 H   0  0  0  0  0  0  0  0  0  0  0  0
    4.3685    2.6228    0.8785 H   0  0  0  0  0  0  0  0  0  0  0  0
    3.2177    3.8916    0.3372 H   0  0  0  0  0  0  0  0  0  0  0  0
    5.0564    1.6404   -1.6208 C   0  0  0  0  0  0  0  0  0  0  0  0
    5.9135    2.3159   -1.8192 H   0  0  0  0  0  0  0  0  0  0  0  0
    4.8721    1.0408   -2.5348 H   0  0  0  0  0  0  0  0  0  0  0  0
    5.3360    0.9495   -0.8011 H   0  0  0  0  0  0  0  0  0  0  0  0
    3.4306    3.4202   -2.4071 C   0  0  0  0  0  0  0  0  0  0  0  0
    4.2736    4.1091   -2.6186 H   0  0  0  0  0  0  0  0  0  0  0  0
    2.5392    4.0261   -2.1552 H   0  0  0  0  0  0  0  0  0  0  0  0
    3.2096    2.8477   -3.3294 H   0  0  0  0  0  0  0  0  0  0  0  0
    1.5684   -1.5339   -0.1023 N   0  0  0  0  0  0  0  0  0  0  0  0
    0.8753   -2.6193    0.5854 C   0  0  0  0  0  0  0  0  0  0  0  0
    0.4032   -2.2199    1.5093 H   0  0  0  0  0  0  0  0  0  0  0  0
    1.6527   -3.3379    0.9194 H   0  0  0  0  0  0  0  0  0  0  0  0
   -0.1800   -3.3405   -0.2402 C   0  0  0  0  0  0  0  0  0  0  0  0
   -0.0733   -3.4433   -1.6390 C   0  0  0  0  0  0  0  0  0  0  0  0
    0.7723   -2.9656   -2.1576 H   0  0  0  0  0  0  0  0  0  0  0  0
   -1.0546   -4.1188   -2.3790 C   0  0  0  0  0  0  0  0  0  0  0  0
   -0.9663   -4.1804   -3.4742 H   0  0  0  0  0  0  0  0  0  0  0  0
   -2.1539   -4.6996   -1.7287 C   0  0  0  0  0  0  0  0  0  0  0  0
   -2.9305   -5.2173   -2.3112 H   0  0  0  0  0  0  0  0  0  0  0  0
   -2.2701   -4.5958   -0.3343 C   0  0  0  0  0  0  0  0  0  0  0  0
   -3.1400   -5.0294    0.1818 H   0  0  0  0  0  0  0  0  0  0  0  0
   -1.2907   -3.9171    0.4051 C   0  0  0  0  0  0  0  0  0  0  0  0
   -1.4043   -3.8079    1.4954 H   0  0  0  0  0  0  0  0  0  0  0  0
    2.9454   -1.7599   -0.5155 C   0  0  0  0  0  0  0  0  0  0  0  0
    3.1411   -1.1622   -1.4294 H   0  0  0  0  0  0  0  0  0  0  0  0
    3.0413   -2.8249   -0.8132 H   0  0  0  0  0  0  0  0  0  0  0  0
    4.0072   -1.4239    0.5223 C   0  0  0  0  0  0  0  0  0  0  0  0
    5.3466   -1.7784    0.2662 C   0  0  0  0  0  0  0  0  0  0  0  0
    5.5967   -2.3283   -0.6557 H   0  0  0  0  0  0  0  0  0  0  0  0
    6.3636   -1.4302    1.1661 C   0  0  0  0  0  0  0  0  0  0  0  0
    7.4054   -1.7123    0.9505 H   0  0  0  0  0  0  0  0  0  0  0  0
    6.0529   -0.7256    2.3412 C   0  0  0  0  0  0  0  0  0  0  0  0
    6.8495   -0.4517    3.0492 H   0  0  0  0  0  0  0  0  0  0  0  0
    4.7198   -0.3796    2.6085 C   0  0  0  0  0  0  0  0  0  0  0  0
    4.4652    0.1673    3.5291 H   0  0  0  0  0  0  0  0  0  0  0  0
    3.7029   -0.7265    1.7041 C   0  0  0  0  0  0  0  0  0  0  0  0
    2.6614   -0.4429    1.9152 H   0  0  0  0  0  0  0  0  0  0  0  0
  1  2  1  0  0  0  0
  1  9  1  0  0  0  0
  2  3  1  0  0  0  0
  4  2  1  0  0  0  0
  5  6  1  0  0  0  0
  5  8  1  0  0  0  0
  5  2  1  0  0  0  0
  7  5  1  0  0  0  0
 10  9  2  0  0  0  0
 10 11  1  0  0  0  0
 12 13  1  1  0  0  0
 12 28  1  0  0  0  0
 12 10  1  0  0  0  0
 14 13  3  0  0  0  0
 15 14  1  0  0  0  0
 15 16  1  0  0  0  0
 16 19  1  0  0  0  0
 16 18  1  0  0  0  0
 17 16  1  0  0  0  0
 20 15  1  0  0  0  0
 20 23  1  0  0  0  0
 21 20  1  0  0  0  0
 22 20  1  0  0  0  0
 24 26  1  0  0  0  0
 24 15  1  0  0  0  0
 25 24  1  0  0  0  0
 27 24  1  0  0  0  0
 28 29  1  0  0  0  0
 29 31  1  0  0  0  0
 29 30  1  0  0  0  0
 32 41  1  0  0  0  0
 32 29  1  0  0  0  0
 33 32  2  0  0  0  0
 34 33  1  0  0  0  0
 35 37  2  0  0  0  0
 35 33  1  0  0  0  0
 36 35  1  0  0  0  0
 37 39  1  0  0  0  0
 38 37  1  0  0  0  0
 39 40  1  0  0  0  0
 39 41  2  0  0  0  0
 41 42  1  0  0  0  0
 43 28  1  0  0  0  0
 43 46  1  0  0  0  0
 44 43  1  0  0  0  0
 45 43  1  0  0  0  0
 46 55  1  0  0  0  0
 47 46  2  0  0  0  0
 47 49  1  0  0  0  0
 48 47  1  0  0  0  0
 49 51  2  0  0  0  0
 50 49  1  0  0  0  0
 51 53  1  0  0  0  0
 51 52  1  0  0  0  0
 53 54  1  0  0  0  0
 55 56  1  0  0  0  0
 55 53  2  0  0  0  0
M  END
