1
q = -1.0, confidence = 0.008

 20 19  0  0  0  0  0  0  0  0999 V2000
   -2.4476    0.1973    0.7996 C   0  0  0  0  0  3  0  0  0  0  0  0
   -2.5232    1.2975    0.9371 H   0  0  0  0  0  0  0  0  0  0  0  0
   -2.8596   -0.4849    2.0954 C   0  0  0  0  0  0  0  0  0  0  0  0
   -2.2030   -0.2176    2.9438 H   0  0  0  0  0  0  0  0  0  0  0  0
   -2.8559   -1.5909    1.9993 H   0  0  0  0  0  0  0  0  0  0  0  0
   -3.8945   -0.1887    2.3801 H   0  0  0  0  0  0  0  0  0  0  0  0
   -3.3271   -0.1899   -0.3866 C   0  0  0  0  0  0  0  0  0  0  0  0
   -3.3229   -1.2948   -0.5206 H   0  0  0  0  0  0  0  0  0  0  0  0
   -2.9166    0.2354   -1.3242 H   0  0  0  0  0  0  0  0  0  0  0  0
   -4.7843    0.2859   -0.2621 C   0  0  0  0  0  0  0  0  0  0  0  0
   -5.2716   -0.1662    0.6280 H   0  0  0  0  0  0  0  0  0  0  0  0
   -4.7961    1.3862   -0.0898 H   0  0  0  0  0  0  0  0  0  0  0  0
   -5.6246   -0.0433   -1.5083 C   0  0  0  0  0  0  0  0  0  0  0  0
   -5.1256    0.4111   -2.3955 H   0  0  0  0  0  0  0  0  0  0  0  0
   -5.6241   -1.1416   -1.6811 H   0  0  0  0  0  0  0  0  0  0  0  0
   -7.0367    0.4584   -1.4206 C   0  0  0  0  0  0  0  0  0  0  0  0
   -7.1492    1.5534   -1.3024 H   0  0  0  0  0  0  0  0  0  0  0  0
   -8.1437   -0.3042   -1.4483 C   0  0  0  0  0  0  0  0  0  0  0  0
   -8.0808   -1.4003   -1.5583 H   0  0  0  0  0  0  0  0  0  0  0  0
   -9.1511    0.1333   -1.3661 H   0  0  0  0  0  0  0  0  0  0  0  0
  1  2  1  0  0  0  0
  1  3  1  0  0  0  0
  3  6  1  0  0  0  0
  3  4  1  0  0  0  0
  5  3  1  0  0  0  0
  7 10  1  0  0  0  0
  7  1  1  0  0  0  0
  8  7  1  0  0  0  0
  9  7  1  0  0  0  0
 10 12  1  0  0  0  0
 10 11  1  0  0  0  0
 13 16  1  0  0  0  0
 13 10  1  0  0  0  0
 14 13  1  0  0  0  0
 15 13  1  0  0  0  0
 16 17  1  0  0  0  0
 18 16  2  0  0  0  0
 18 20  1  0  0  0  0
 19 18  1  0  0  0  0
M  END
