9
q = 0.0, confidence = 0.998

 21 23  0  0  1  0  0  0  0  0999 V2000
   -2.2622   -0.4186   -1.1332 C   0  0  2  0  0  0  0  0  0  0  0  0
   -1.1015    0.4913   -0.7118 C   0  0  0  0  0  0  0  0  0  0  0  0
   -1.1015    0.4914    0.7120 C   0  0  2  0  0  3  0  0  0  0  0  0
   -2.2623   -0.4184    1.1335 C   0  0  1  0  0  0  0  0  0  0  0  0
   -3.5288    0.3313    0.6750 C   0  0  0  0  0  0  0  0  0  0  0  0
   -3.5288    0.3312   -0.6750 C   0  0  0  0  0  0  0  0  0  0  0  0
   -2.1851   -1.4820    0.0003 C   0  0  0  0  0  0  0  0  0  0  0  0
   -0.1934    1.3069   -1.4408 C   0  0  0  0  0  0  0  0  0  0  0  0
    0.7114    2.1289   -0.7168 C   0  0  0  0  0  3  0  0  0  0  0  0
    0.7115    2.1290    0.7168 C   0  0  0  0  0  0  0  0  0  0  0  0
   -0.1934    1.3070    1.4409 C   0  0  0  0  0  0  0  0  0  0  0  0
   -2.2379   -0.7711   -2.1794 H   0  0  0  0  0  0  0  0  0  0  0  0
   -2.2381   -0.7707    2.1798 H   0  0  0  0  0  0  0  0  0  0  0  0
   -4.2340    0.8365    1.3486 H   0  0  0  0  0  0  0  0  0  0  0  0
   -4.2339    0.8362   -1.3487 H   0  0  0  0  0  0  0  0  0  0  0  0
   -1.2403   -2.0566    0.0004 H   0  0  0  0  0  0  0  0  0  0  0  0
   -3.0611   -2.1581    0.0003 H   0  0  0  0  0  0  0  0  0  0  0  0
   -0.1564    1.2740   -2.5388 H   0  0  0  0  0  0  0  0  0  0  0  0
    1.4514    2.7339   -1.2583 H   0  0  0  0  0  0  0  0  0  0  0  0
    1.4514    2.7341    1.2583 H   0  0  0  0  0  0  0  0  0  0  0  0
   -0.1563    1.2743    2.5388 H   0  0  0  0  0  0  0  0  0  0  0  0
  1 12  1  6  0  0  0
  1  2  1  0  0  0  0
  1  6  1  0  0  0  0
  1  7  1  0  0  0  0
  3  2  1  6  0  0  0
  3  4  1  0  0  0  0
  3 11  1  0  0  0  0
  4 13  1  1  0  0  0
  5  4  1  0  0  0  0
  5 14  1  0  0  0  0
  6  5  2  0  0  0  0
  7 17  1  0  0  0  0
  7 16  1  0  0  0  0
  7  4  1  0  0  0  0
  8  9  1  0  0  0  0
  8  2  2  0  0  0  0
  9 10  1  0  0  0  0
 10 20  1  0  0  0  0
 10 11  2  0  0  0  0
 11 21  1  0  0  0  0
 15  6  1  0  0  0  0
 18  8  1  0  0  0  0
 19  9  1  0  0  0  0
M  END
