2
q = -1.0, confidence = 0.016

 14 13  0  0  0  0  0  0  0  0999 V2000
   -1.8041   -1.7376    1.5363 C   0  0  0  0  0  3  0  0  0  0  0  0
   -2.2049   -0.3705    1.3476 C   0  0  0  0  0  3  0  0  0  0  0  0
   -2.8221   -0.0548    0.1143 C   0  0  0  0  0  3  0  0  0  0  0  0
   -3.3486    1.3308   -0.1659 C   0  0  0  0  0  0  0  0  0  0  0  0
   -4.7290    1.5463    0.4755 C   0  0  0  0  0  0  0  0  0  0  0  0
   -1.3132   -2.0319    2.4766 H   0  0  0  0  0  0  0  0  0  0  0  0
   -2.4674   -2.5202    1.1316 H   0  0  0  0  0  0  0  0  0  0  0  0
   -1.9819    0.4148    2.0880 H   0  0  0  0  0  0  0  0  0  0  0  0
   -3.3906   -0.8653   -0.3754 H   0  0  0  0  0  0  0  0  0  0  0  0
   -3.4387    1.4883   -1.2605 H   0  0  0  0  0  0  0  0  0  0  0  0
   -2.6352    2.0957    0.2049 H   0  0  0  0  0  0  0  0  0  0  0  0
   -5.1268    2.5551    0.2428 H   0  0  0  0  0  0  0  0  0  0  0  0
   -5.4635    0.8001    0.1090 H   0  0  0  0  0  0  0  0  0  0  0  0
   -4.6765    1.4446    1.5786 H   0  0  0  0  0  0  0  0  0  0  0  0
  1  6  1  0  0  0  0
  2  1  1  0  0  0  0
  2  8  1  0  0  0  0
  3  2  1  0  0  0  0
  4  3  1  0  0  0  0
  4 11  1  0  0  0  0
  4  5  1  0  0  0  0
  5 14  1  0  0  0  0
  7  1  1  0  0  0  0
  9  3  1  0  0  0  0
 10  4  1  0  0  0  0
 12  5  1  0  0  0  0
 13  5  1  0  0  0  0
M  END
