1
q = 0.0, confidence = 0.91

 14 14  0  0  0  0  0  0  0  0999 V2000
   -2.8598   -0.5243    0.1379 C   0  0  0  0  0  2  0  0  0  0  0  0
   -3.6281   -0.6774   -1.0865 C   0  0  0  0  0  0  0  0  0  0  0  0
   -3.0217   -0.8399   -1.9881 H   0  0  0  0  0  0  0  0  0  0  0  0
   -5.0225   -1.3501   -1.0455 C   0  0  0  0  0  0  0  0  0  0  0  0
   -5.2391   -2.0165   -1.8938 H   0  0  0  0  0  0  0  0  0  0  0  0
   -5.3385   -1.7165   -0.0572 H   0  0  0  0  0  0  0  0  0  0  0  0
   -4.9507    0.1070   -1.2645 C   0  0  0  0  0  0  0  0  0  0  0  0
   -5.2131    0.7756   -0.4309 H   0  0  0  0  0  0  0  0  0  0  0  0
   -5.1153    0.5134   -2.2738 H   0  0  0  0  0  0  0  0  0  0  0  0
   -3.6032   -0.3382    1.1942 O   0  0  0  0  0  0  0  0  0  0  0  0
   -3.0328   -0.1657    2.5062 C   0  0  0  0  0  0  0  0  0  0  0  0
   -1.9267   -0.2094    2.4470 H   0  0  0  0  0  0  0  0  0  0  0  0
   -3.4345   -0.9722    3.1480 H   0  0  0  0  0  0  0  0  0  0  0  0
   -3.3673    0.8185    2.8826 H   0  0  0  0  0  0  0  0  0  0  0  0
  1 10  1  0  0  0  0
  2  4  1  0  0  0  0
  2  1  1  0  0  0  0
  3  2  1  0  0  0  0
  4  6  1  0  0  0  0
  5  4  1  0  0  0  0
  7  2  1  0  0  0  0
  7  4  1  0  0  0  0
  7  8  1  0  0  0  0
  9  7  1  0  0  0  0
 10 11  1  0  0  0  0
 11 14  1  0  0  0  0
 11 13  1  0  0  0  0
 12 11  1  0  0  0  0
M  END
