6
q = 0.0, confidence = 0.98

 36 35  0  0  1  0  0  0  0  0999 V2000
   -1.4766   -1.3952    1.3005 O   0  0  0  0  0  0  0  0  0  0  0  0
    1.4774   -1.5586   -1.3808 O   0  0  0  0  0  0  0  0  0  0  0  0
    1.6920   -0.9387    1.8018 N   0  0  0  0  0  0  0  0  0  0  0  0
    2.0486   -0.1495    2.9733 C   0  0  0  0  0  0  0  0  0  0  0  0
    1.8281   -2.3888    1.9276 C   0  0  0  0  0  0  0  0  0  0  0  0
    1.0054   -0.4153    0.8011 C   0  0  0  0  0  2  0  0  0  0  0  0
    0.6666   -0.9003   -0.4956 C   0  0  1  0  0  3  0  0  0  0  0  0
   -0.7037   -0.6125   -0.8111 C   0  0  0  0  0  3  0  0  0  0  0  0
   -1.7575   -0.9420    0.1886 C   0  0  0  0  0  0  0  0  0  0  0  0
   -3.2339   -0.7575   -0.2394 C   0  0  0  0  0  0  0  0  0  0  0  0
   -3.4501    0.5354   -1.0485 C   0  0  0  0  0  0  0  0  0  0  0  0
   -4.1162   -0.7392    1.0177 C   0  0  0  0  0  0  0  0  0  0  0  0
   -3.5888   -1.9844   -1.1132 C   0  0  0  0  0  0  0  0  0  0  0  0
    2.8660   -1.1997   -1.3705 C   0  0  0  0  0  0  0  0  0  0  0  0
    3.5497   -1.9146   -2.5180 C   0  0  0  0  0  0  0  0  0  0  0  0
    1.8020    0.9095    2.7862 H   0  0  0  0  0  0  0  0  0  0  0  0
    3.1331   -0.2427    3.1897 H   0  0  0  0  0  0  0  0  0  0  0  0
    1.4797   -0.5028    3.8599 H   0  0  0  0  0  0  0  0  0  0  0  0
    1.0357   -2.7849    2.5979 H   0  0  0  0  0  0  0  0  0  0  0  0
    1.7138   -2.8596    0.9348 H   0  0  0  0  0  0  0  0  0  0  0  0
    2.8230   -2.6435    2.3452 H   0  0  0  0  0  0  0  0  0  0  0  0
   -0.9833   -0.6114   -1.8763 H   0  0  0  0  0  0  0  0  0  0  0  0
   -4.5166    0.6125   -1.3450 H   0  0  0  0  0  0  0  0  0  0  0  0
   -3.1993    1.4330   -0.4504 H   0  0  0  0  0  0  0  0  0  0  0  0
   -2.8458    0.5671   -1.9760 H   0  0  0  0  0  0  0  0  0  0  0  0
   -5.1866   -0.6774    0.7352 H   0  0  0  0  0  0  0  0  0  0  0  0
   -3.9558   -1.6489    1.6261 H   0  0  0  0  0  0  0  0  0  0  0  0
   -3.8715    0.1337    1.6553 H   0  0  0  0  0  0  0  0  0  0  0  0
   -4.6523   -1.9300   -1.4251 H   0  0  0  0  0  0  0  0  0  0  0  0
   -2.9697   -2.0307   -2.0323 H   0  0  0  0  0  0  0  0  0  0  0  0
   -3.4428   -2.9285   -0.5508 H   0  0  0  0  0  0  0  0  0  0  0  0
    3.3299   -1.4733   -0.3950 H   0  0  0  0  0  0  0  0  0  0  0  0
    2.9402   -0.0917   -1.4682 H   0  0  0  0  0  0  0  0  0  0  0  0
    4.6244   -1.6470   -2.5481 H   0  0  0  0  0  0  0  0  0  0  0  0
    3.4676   -3.0142   -2.4078 H   0  0  0  0  0  0  0  0  0  0  0  0
    3.0910   -1.6290   -3.4849 H   0  0  0  0  0  0  0  0  0  0  0  0
  2 14  1  0  0  0  0
  2  7  1  0  0  0  0
  3  5  1  0  0  0  0
  3  4  1  0  0  0  0
  4 17  1  0  0  0  0
  4 18  1  0  0  0  0
  5 21  1  0  0  0  0
  5 19  1  0  0  0  0
  6  3  1  0  0  0  0
  7  6  1  6  0  0  0
  8  7  1  0  0  0  0
  8  9  1  0  0  0  0
  9  1  2  0  0  0  0
 10  9  1  0  0  0  0
 10 12  1  0  0  0  0
 11 24  1  0  0  0  0
 11 10  1  0  0  0  0
 12 27  1  0  0  0  0
 12 28  1  0  0  0  0
 13 31  1  0  0  0  0
 13 10  1  0  0  0  0
 14 32  1  0  0  0  0
 15 35  1  0  0  0  0
 15 14  1  0  0  0  0
 16  4  1  0  0  0  0
 20  5  1  0  0  0  0
 22  8  1  0  0  0  0
 23 11  1  0  0  0  0
 25 11  1  0  0  0  0
 26 12  1  0  0  0  0
 29 13  1  0  0  0  0
 30 13  1  0  0  0  0
 33 14  1  0  0  0  0
 34 15  1  0  0  0  0
 36 15  1  0  0  0  0
M  END
