3
q = -1.0, confidence = 0.004

 35 34  0  0  0  0  0  0  0  0999 V2000
    1.5557   -2.8872    0.1622 Se  0  0  0  0  0  0  0  0  0  0  0  0
    5.2545    0.3555   -0.0443 Si  0  0  0  0  0  0  0  0  0  0  0  0
    0.1568   -1.6577    0.0879 C   0  0  0  0  0  1  0  0  0  0  0  0
    2.9685   -1.7161    0.0742 C   0  0  0  0  0  0  0  0  0  0  0  0
    3.9104   -0.9137    0.0224 C   0  0  0  0  0  0  0  0  0  0  0  0
    4.5963    1.8048   -1.1080 C   0  0  0  0  0  0  0  0  0  0  0  0
    5.4030    2.5740   -1.0811 H   0  0  0  0  0  0  0  0  0  0  0  0
    6.7543   -0.4859   -0.8905 C   0  0  0  0  0  0  0  0  0  0  0  0
    6.3648   -0.7937   -1.8875 H   0  0  0  0  0  0  0  0  0  0  0  0
    3.3205    2.4149   -0.5077 C   0  0  0  0  0  0  0  0  0  0  0  0
    2.5075    1.6637   -0.4576 H   0  0  0  0  0  0  0  0  0  0  0  0
    2.9535    3.2600   -1.1300 H   0  0  0  0  0  0  0  0  0  0  0  0
    3.4750    2.7993    0.5203 H   0  0  0  0  0  0  0  0  0  0  0  0
    4.5078    0.7803    2.7243 C   0  0  0  0  0  0  0  0  0  0  0  0
    3.6607    1.4367    2.4391 H   0  0  0  0  0  0  0  0  0  0  0  0
    4.8175    1.0654    3.7535 H   0  0  0  0  0  0  0  0  0  0  0  0
    4.1073   -0.2519    2.7609 H   0  0  0  0  0  0  0  0  0  0  0  0
    5.6885    0.8988    1.7475 C   0  0  0  0  0  0  0  0  0  0  0  0
    6.4684    0.1706    2.0697 H   0  0  0  0  0  0  0  0  0  0  0  0
    7.9251    0.4845   -1.1079 C   0  0  0  0  0  0  0  0  0  0  0  0
    7.6233    1.3935   -1.6682 H   0  0  0  0  0  0  0  0  0  0  0  0
    8.7469    0.0005   -1.6793 H   0  0  0  0  0  0  0  0  0  0  0  0
    8.3598    0.8185   -0.1421 H   0  0  0  0  0  0  0  0  0  0  0  0
    4.3750    1.3789   -2.5677 C   0  0  0  0  0  0  0  0  0  0  0  0
    5.3020    0.9984   -3.0429 H   0  0  0  0  0  0  0  0  0  0  0  0
    4.0148    2.2345   -3.1792 H   0  0  0  0  0  0  0  0  0  0  0  0
    3.6038    0.5845   -2.6390 H   0  0  0  0  0  0  0  0  0  0  0  0
    7.1939   -1.7541   -0.1445 C   0  0  0  0  0  0  0  0  0  0  0  0
    7.5836   -1.5161    0.8683 H   0  0  0  0  0  0  0  0  0  0  0  0
    8.0088   -2.2791   -0.6888 H   0  0  0  0  0  0  0  0  0  0  0  0
    6.3555   -2.4687   -0.0178 H   0  0  0  0  0  0  0  0  0  0  0  0
    6.3158    2.3033    1.7824 C   0  0  0  0  0  0  0  0  0  0  0  0
    7.1904    2.3993    1.1071 H   0  0  0  0  0  0  0  0  0  0  0  0
    6.6599    2.5582    2.8082 H   0  0  0  0  0  0  0  0  0  0  0  0
    5.5832    3.0825    1.4853 H   0  0  0  0  0  0  0  0  0  0  0  0
  2  5  1  0  0  0  0
  2 18  1  0  0  0  0
  3  1  1  0  0  0  0
  4  1  1  0  0  0  0
  5  4  3  0  0  0  0
  6  7  1  0  0  0  0
  6 10  1  0  0  0  0
  6  2  1  0  0  0  0
  8 28  1  0  0  0  0
  8  2  1  0  0  0  0
  9  8  1  0  0  0  0
 10 11  1  0  0  0  0
 10 13  1  0  0  0  0
 12 10  1  0  0  0  0
 14 17  1  0  0  0  0
 14 16  1  0  0  0  0
 15 14  1  0  0  0  0
 18 32  1  0  0  0  0
 18 19  1  0  0  0  0
 18 14  1  0  0  0  0
 20  8  1  0  0  0  0
 20 23  1  0  0  0  0
 21 20  1  0  0  0  0
 22 20  1  0  0  0  0
 24  6  1  0  0  0  0
 25 24  1  0  0  0  0
 26 24  1  0  0  0  0
 27 24  1  0  0  0  0
 28 31  1  0  0  0  0
 28 29  1  0  0  0  0
 30 28  1  0  0  0  0
 32 34  1  0  0  0  0
 33 32  1  0  0  0  0
 35 32  1  0  0  0  0
M  END
