2
q = -1.0, confidence = 0.0

 25 26  0  0  1  0  0  0  0  0999 V2000
   -0.0985    0.5793    1.7020 C   0  0  0  0  0  3  0  0  0  0  0  0
   -0.9599    0.7128    0.5383 C   0  0  2  0  0  3  0  0  0  0  0  0
   -0.1492    1.5944   -0.2887 C   0  0  1  0  0  3  0  0  0  0  0  0
   -0.4745    2.2926   -1.5807 C   0  0  0  0  0  0  0  0  0  0  0  0
   -1.3648    3.5282   -1.3862 C   0  0  0  0  0  0  0  0  0  0  0  0
    0.7103    1.8177    1.8075 C   0  0  0  0  0  0  0  0  0  0  0  0
   -2.3371    0.1933    0.3953 C   0  0  0  0  0  0  0  0  0  0  0  0
   -2.9169   -0.5375    1.4596 C   0  0  0  0  0  0  0  0  0  0  0  0
   -4.2206   -1.0386    1.3679 C   0  0  0  0  0  0  0  0  0  0  0  0
   -4.9857   -0.8190    0.2117 C   0  0  0  0  0  0  0  0  0  0  0  0
   -4.4277   -0.0908   -0.8496 C   0  0  0  0  0  0  0  0  0  0  0  0
   -3.1221    0.4097   -0.7611 C   0  0  0  0  0  0  0  0  0  0  0  0
    0.6403    2.4400    0.5610 O   0  0  0  0  0  0  0  0  0  0  0  0
    1.3577    2.2790    2.7211 O   0  0  0  0  0  0  0  0  0  0  0  0
   -0.3464    0.0264    2.6156 H   0  0  0  0  0  0  0  0  0  0  0  0
    0.4859    2.5944   -2.0493 H   0  0  0  0  0  0  0  0  0  0  0  0
   -0.9323    1.5683   -2.2816 H   0  0  0  0  0  0  0  0  0  0  0  0
   -1.5460    4.0419   -2.3512 H   0  0  0  0  0  0  0  0  0  0  0  0
   -2.3471    3.2521   -0.9529 H   0  0  0  0  0  0  0  0  0  0  0  0
   -0.8818    4.2465   -0.6959 H   0  0  0  0  0  0  0  0  0  0  0  0
   -2.3381   -0.7175    2.3761 H   0  0  0  0  0  0  0  0  0  0  0  0
   -4.6435   -1.6044    2.2118 H   0  0  0  0  0  0  0  0  0  0  0  0
   -6.0109   -1.2118    0.1394 H   0  0  0  0  0  0  0  0  0  0  0  0
   -5.0136    0.0911   -1.7633 H   0  0  0  0  0  0  0  0  0  0  0  0
   -2.7109    0.9662   -1.6114 H   0  0  0  0  0  0  0  0  0  0  0  0
  1  6  1  0  0  0  0
  1 15  1  0  0  0  0
  2  7  1  1  0  0  0
  2  1  1  0  0  0  0
  3  4  1  1  0  0  0
  3  2  1  0  0  0  0
  3 13  1  0  0  0  0
  4  5  1  0  0  0  0
  5 19  1  0  0  0  0
  5 20  1  0  0  0  0
  6 14  2  0  0  0  0
  7  8  1  0  0  0  0
  8 21  1  0  0  0  0
  9  8  2  0  0  0  0
  9 22  1  0  0  0  0
 10  9  1  0  0  0  0
 11 12  1  0  0  0  0
 11 10  2  0  0  0  0
 12  7  2  0  0  0  0
 13  6  1  0  0  0  0
 16  4  1  0  0  0  0
 17  4  1  0  0  0  0
 18  5  1  0  0  0  0
 23 10  1  0  0  0  0
 24 11  1  0  0  0  0
 25 12  1  0  0  0  0
M  END
