5
q = 0.0, confidence = 0.996

 47 49  0  0  1  0  0  0  0  0999 V2000
    1.0955    2.1774   -0.5087 N   0  0  0  0  0  0  0  0  0  0  0  0
    1.0183    1.2905    0.5298 C   0  0  2  0  0  3  0  0  0  0  0  0
    1.6838    1.7183    1.6102 O   0  0  0  0  0  0  0  0  0  0  0  0
    1.5897    0.9671    2.8274 C   0  0  0  0  0  0  0  0  0  0  0  0
    0.3361    0.0394    0.4316 C   0  0  0  0  0  2  0  0  0  0  0  0
   -1.0007   -0.0091    0.1716 C   0  0  1  0  0  3  0  0  0  0  0  0
   -1.6968    1.3700   -0.0266 C   0  0  1  0  0  0  0  0  0  0  0  0
   -1.1693    1.8517   -1.3500 C   0  0  0  0  0  0  0  0  0  0  0  0
    0.1291    2.2073   -1.5253 C   0  0  0  0  0  0  0  0  0  0  0  0
    2.2298    3.1144   -0.6048 C   0  0  0  0  0  0  0  0  0  0  0  0
    1.9016    4.5132   -0.0793 C   0  0  0  0  0  0  0  0  0  0  0  0
    3.0796    5.4744   -0.2311 C   0  0  0  0  0  0  0  0  0  0  0  0
   -1.7728   -1.2449   -0.0729 C   0  0  0  0  0  0  0  0  0  0  0  0
   -2.6010   -1.3834   -1.2084 C   0  0  0  0  0  0  0  0  0  0  0  0
   -3.3140   -2.5674   -1.4318 C   0  0  0  0  0  0  0  0  0  0  0  0
   -3.2331   -3.6263   -0.5130 C   0  0  0  0  0  0  0  0  0  0  0  0
   -2.4362   -3.4899    0.6338 C   0  0  0  0  0  0  0  0  0  0  0  0
   -1.7132   -2.3102    0.8529 C   0  0  0  0  0  0  0  0  0  0  0  0
   -3.2025    1.4105    0.1626 C   0  0  0  0  0  0  0  0  0  0  0  0
   -3.7765    0.7353    1.2602 C   0  0  0  0  0  0  0  0  0  0  0  0
   -5.1571    0.7765    1.4906 C   0  0  0  0  0  0  0  0  0  0  0  0
   -5.9961    1.4989    0.6262 C   0  0  0  0  0  0  0  0  0  0  0  0
   -5.4372    2.1854   -0.4607 C   0  0  0  0  0  0  0  0  0  0  0  0
   -4.0518    2.1427   -0.6878 C   0  0  0  0  0  0  0  0  0  0  0  0
    1.8257    1.6828    3.6352 H   0  0  0  0  0  0  0  0  0  0  0  0
    2.3255    0.1414    2.8274 H   0  0  0  0  0  0  0  0  0  0  0  0
    0.5731    0.5479    2.9564 H   0  0  0  0  0  0  0  0  0  0  0  0
   -1.2618    2.0298    0.7615 H   0  0  0  0  0  0  0  0  0  0  0  0
   -1.8172    1.8394   -2.2391 H   0  0  0  0  0  0  0  0  0  0  0  0
    0.5127    2.5410   -2.5005 H   0  0  0  0  0  0  0  0  0  0  0  0
    2.5197    3.1547   -1.6763 H   0  0  0  0  0  0  0  0  0  0  0  0
    3.0805    2.6759   -0.0495 H   0  0  0  0  0  0  0  0  0  0  0  0
    1.0122    4.9012   -0.6216 H   0  0  0  0  0  0  0  0  0  0  0  0
    1.6074    4.4263    0.9876 H   0  0  0  0  0  0  0  0  0  0  0  0
    2.8286    6.4818    0.1551 H   0  0  0  0  0  0  0  0  0  0  0  0
    3.3774    5.5884   -1.2942 H   0  0  0  0  0  0  0  0  0  0  0  0
    3.9694    5.1146    0.3258 H   0  0  0  0  0  0  0  0  0  0  0  0
   -2.6687   -0.5611   -1.9355 H   0  0  0  0  0  0  0  0  0  0  0  0
   -3.9380   -2.6654   -2.3330 H   0  0  0  0  0  0  0  0  0  0  0  0
   -3.7954   -4.5556   -0.6898 H   0  0  0  0  0  0  0  0  0  0  0  0
   -2.3734   -4.3104    1.3647 H   0  0  0  0  0  0  0  0  0  0  0  0
   -1.0942   -2.2013    1.7542 H   0  0  0  0  0  0  0  0  0  0  0  0
   -3.1288    0.1566    1.9359 H   0  0  0  0  0  0  0  0  0  0  0  0
   -5.5827    0.2349    2.3490 H   0  0  0  0  0  0  0  0  0  0  0  0
   -7.0820    1.5278    0.8022 H   0  0  0  0  0  0  0  0  0  0  0  0
   -6.0822    2.7632   -1.1402 H   0  0  0  0  0  0  0  0  0  0  0  0
   -3.6324    2.7027   -1.5365 H   0  0  0  0  0  0  0  0  0  0  0  0
  1  2  1  0  0  0  0
  2  3  1  6  0  0  0
  3  4  1  0  0  0  0
  4 26  1  0  0  0  0
  4 27  1  0  0  0  0
  4 25  1  0  0  0  0
  5  2  1  0  0  0  0
  6 13  1  6  0  0  0
  6  5  1  0  0  0  0
  7 19  1  0  0  0  0
  7  6  1  0  0  0  0
  7 28  1  1  0  0  0
  8  7  1  0  0  0  0
  9  8  2  0  0  0  0
  9  1  1  0  0  0  0
 10  1  1  0  0  0  0
 10 11  1  0  0  0  0
 10 32  1  0  0  0  0
 11 34  1  0  0  0  0
 12 11  1  0  0  0  0
 12 35  1  0  0  0  0
 12 37  1  0  0  0  0
 13 18  1  0  0  0  0
 14 13  2  0  0  0  0
 15 14  1  0  0  0  0
 15 16  2  0  0  0  0
 16 17  1  0  0  0  0
 17 18  2  0  0  0  0
 17 41  1  0  0  0  0
 18 42  1  0  0  0  0
 19 20  1  0  0  0  0
 20 21  2  0  0  0  0
 20 43  1  0  0  0  0
 21 44  1  0  0  0  0
 22 45  1  0  0  0  0
 22 21  1  0  0  0  0
 23 22  2  0  0  0  0
 24 23  1  0  0  0  0
 24 19  2  0  0  0  0
 29  8  1  0  0  0  0
 30  9  1  0  0  0  0
 31 10  1  0  0  0  0
 33 11  1  0  0  0  0
 36 12  1  0  0  0  0
 38 14  1  0  0  0  0
 39 15  1  0  0  0  0
 40 16  1  0  0  0  0
 46 23  1  0  0  0  0
 47 24  1  0  0  0  0
M  END
