7
q = 0.0, confidence = 1.0

 19 19  0  0  0  0  0  0  0  0999 V2000
   -2.6571    1.0903    0.4925 N   0  0  0  0  0  0  0  0  0  0  0  0
   -2.7538    0.5061    1.7766 C   0  0  0  0  0  0  0  0  0  0  0  0
   -2.1476   -0.4116    1.8553 H   0  0  0  0  0  0  0  0  0  0  0  0
   -3.5137    0.9820    2.7771 C   0  0  0  0  0  0  0  0  0  0  0  0
   -4.1088    1.9039    2.6932 H   0  0  0  0  0  0  0  0  0  0  0  0
   -3.5551    0.4320    3.7268 H   0  0  0  0  0  0  0  0  0  0  0  0
   -1.6196    0.8247   -0.3785 C   0  0  0  0  0  2  0  0  0  0  0  0
   -1.9291    1.5274   -1.5046 N   0  0  0  0  0  0  0  0  0  0  0  0
   -1.1066    1.5454   -2.7117 C   0  0  0  0  0  0  0  0  0  0  0  0
   -0.3912    0.7072   -2.5971 H   0  0  0  0  0  0  0  0  0  0  0  0
   -1.7605    1.3045   -3.5751 H   0  0  0  0  0  0  0  0  0  0  0  0
   -0.3889    2.8767   -2.9141 C   0  0  0  0  0  0  0  0  0  0  0  0
   -1.1045    3.7157   -3.0301 H   0  0  0  0  0  0  0  0  0  0  0  0
    0.2336    2.8373   -3.8299 H   0  0  0  0  0  0  0  0  0  0  0  0
    0.2696    3.1048   -2.0527 H   0  0  0  0  0  0  0  0  0  0  0  0
   -3.1340    2.2102   -1.3569 C   0  0  0  0  0  0  0  0  0  0  0  0
   -3.5734    2.8046   -2.1634 H   0  0  0  0  0  0  0  0  0  0  0  0
   -3.5932    1.9384   -0.0988 C   0  0  0  0  0  0  0  0  0  0  0  0
   -4.5183    2.2303    0.4043 H   0  0  0  0  0  0  0  0  0  0  0  0
  1  2  1  0  0  0  0
  2  3  1  0  0  0  0
  2  4  2  0  0  0  0
  4  6  1  0  0  0  0
  5  4  1  0  0  0  0
  7  1  1  0  0  0  0
  8 16  1  0  0  0  0
  8  7  1  0  0  0  0
  9 10  1  0  0  0  0
  9  8  1  0  0  0  0
 11  9  1  0  0  0  0
 12  9  1  0  0  0  0
 12 15  1  0  0  0  0
 13 12  1  0  0  0  0
 14 12  1  0  0  0  0
 16 18  2  0  0  0  0
 17 16  1  0  0  0  0
 18 19  1  0  0  0  0
 18  1  1  0  0  0  0
M  END
