8
q = -2.0, confidence = 0.666

 73 74  0  0  1  0  0  0  0  0999 V2000
    0.3900    0.4119    0.1270 P   0  0  1  0  0  0  0  0  0  0  0  0
    0.6620    2.8110   -1.7639 Si  0  0  0  0  0  0  0  0  0  0  0  0
    1.8911    2.9088    1.1966 Si  0  0  0  0  0  0  0  0  0  0  0  0
   -0.2836    0.2064    1.7953 O   0  0  0  0  0  0  0  0  0  0  0  0
   -2.2725    0.1315    2.9021 O   0  0  0  0  0  0  0  0  0  0  0  0
   -6.3984   -0.2746   -2.0337 O   0  0  0  0  0  0  0  0  0  0  0  0
   -6.4384   -0.1515    0.2380 O   0  0  0  0  0  0  0  0  0  0  0  0
    0.0162   -2.2518   -0.9480 C   0  0  2  0  0  3  0  0  0  0  0  0
    0.2419   -2.8565    0.3459 C   0  0  2  0  0  3  0  0  0  0  0  0
    1.5504   -3.4834    0.3177 C   0  0  0  0  0  0  0  0  0  0  0  0
    2.1326   -3.2649   -0.9721 C   0  0  0  0  0  0  0  0  0  0  0  0
    1.1810   -2.4981   -1.7622 C   0  0  1  0  0  3  0  0  0  0  0  0
   -1.1811   -1.4345   -1.3561 C   0  0  0  0  0  0  0  0  0  0  0  0
   -0.7387   -2.9888    1.4709 C   0  0  0  0  0  0  0  0  0  0  0  0
    2.1339   -4.2940    1.4331 C   0  0  0  0  0  0  0  0  0  0  0  0
    3.4455   -3.7936   -1.4596 C   0  0  0  0  0  0  0  0  0  0  0  0
    1.3494   -2.1588   -3.2106 C   0  0  0  0  0  0  0  0  0  0  0  0
   -1.2725   -0.0480   -0.6513 C   0  0  1  0  0  0  0  0  0  0  0  0
   -2.2426    0.0236    0.5092 C   0  0  0  0  0  0  0  0  0  0  0  0
   -1.6129    0.1317    1.7407 C   0  0  0  0  0  0  0  0  0  0  0  0
   -1.5163    0.2580    4.1112 C   0  0  0  0  0  0  0  0  0  0  0  0
   -3.6605   -0.0356    0.3481 C   0  0  0  0  0  0  0  0  0  0  0  0
   -4.3336   -0.1343   -0.8433 C   0  0  0  0  0  0  0  0  0  0  0  0
   -5.7907   -0.1934   -0.9732 C   0  0  0  0  0  0  0  0  0  0  0  0
   -7.8598   -0.2003    0.1574 C   0  0  0  0  0  0  0  0  0  0  0  0
    0.8250    2.0272   -0.0698 C   0  0  0  0  0  3  0  0  0  0  0  0
    0.3749    1.5711   -3.1870 C   0  0  0  0  0  0  0  0  0  0  0  0
    2.2830    3.6596   -2.2821 C   0  0  0  0  0  0  0  0  0  0  0  0
   -0.7592    4.0666   -1.7930 C   0  0  0  0  0  0  0  0  0  0  0  0
    1.4967    2.4108    2.9866 C   0  0  0  0  0  0  0  0  0  0  0  0
    3.7517    2.6057    0.9463 C   0  0  0  0  0  0  0  0  0  0  0  0
    1.5423    4.7768    1.1272 C   0  0  0  0  0  0  0  0  0  0  0  0
   -2.1095   -2.0030   -1.1442 H   0  0  0  0  0  0  0  0  0  0  0  0
   -1.1494   -1.2881   -2.4529 H   0  0  0  0  0  0  0  0  0  0  0  0
   -0.3242   -2.6210    2.4295 H   0  0  0  0  0  0  0  0  0  0  0  0
   -1.0090   -4.0564    1.6132 H   0  0  0  0  0  0  0  0  0  0  0  0
   -1.6675   -2.4249    1.2701 H   0  0  0  0  0  0  0  0  0  0  0  0
    1.7807   -5.3454    1.3680 H   0  0  0  0  0  0  0  0  0  0  0  0
    1.8324   -3.9050    2.4241 H   0  0  0  0  0  0  0  0  0  0  0  0
    3.2397   -4.3104    1.3963 H   0  0  0  0  0  0  0  0  0  0  0  0
    3.9242   -3.1037   -2.1807 H   0  0  0  0  0  0  0  0  0  0  0  0
    3.3094   -4.7690   -1.9747 H   0  0  0  0  0  0  0  0  0  0  0  0
    4.1550   -3.9532   -0.6255 H   0  0  0  0  0  0  0  0  0  0  0  0
    1.0670   -3.0301   -3.8390 H   0  0  0  0  0  0  0  0  0  0  0  0
    2.3976   -1.9008   -3.4554 H   0  0  0  0  0  0  0  0  0  0  0  0
    0.7162   -1.3052   -3.5129 H   0  0  0  0  0  0  0  0  0  0  0  0
   -1.5279    0.7362   -1.3919 H   0  0  0  0  0  0  0  0  0  0  0  0
   -2.2569    0.2266    4.9298 H   0  0  0  0  0  0  0  0  0  0  0  0
   -0.9560    1.2132    4.1383 H   0  0  0  0  0  0  0  0  0  0  0  0
   -0.7938   -0.5764    4.2214 H   0  0  0  0  0  0  0  0  0  0  0  0
   -4.2611    0.0007    1.2715 H   0  0  0  0  0  0  0  0  0  0  0  0
   -3.8058   -0.1672   -1.8084 H   0  0  0  0  0  0  0  0  0  0  0  0
   -8.2313   -0.1587    1.1979 H   0  0  0  0  0  0  0  0  0  0  0  0
   -8.2049   -1.1332   -0.3354 H   0  0  0  0  0  0  0  0  0  0  0  0
   -8.2608    0.6547   -0.4261 H   0  0  0  0  0  0  0  0  0  0  0  0
    0.4234    2.1329   -4.1434 H   0  0  0  0  0  0  0  0  0  0  0  0
   -0.6019    1.0496   -3.1686 H   0  0  0  0  0  0  0  0  0  0  0  0
    1.1830    0.8125   -3.2103 H   0  0  0  0  0  0  0  0  0  0  0  0
    2.1468    4.1387   -3.2743 H   0  0  0  0  0  0  0  0  0  0  0  0
    3.0883    2.9025   -2.3752 H   0  0  0  0  0  0  0  0  0  0  0  0
    2.6288    4.4391   -1.5769 H   0  0  0  0  0  0  0  0  0  0  0  0
   -0.8552    4.5534   -2.7862 H   0  0  0  0  0  0  0  0  0  0  0  0
   -0.6010    4.8574   -1.0325 H   0  0  0  0  0  0  0  0  0  0  0  0
   -1.7208    3.5662   -1.5559 H   0  0  0  0  0  0  0  0  0  0  0  0
    0.4403    2.6459    3.2268 H   0  0  0  0  0  0  0  0  0  0  0  0
    2.1438    3.0002    3.6699 H   0  0  0  0  0  0  0  0  0  0  0  0
    1.6699    1.3369    3.1891 H   0  0  0  0  0  0  0  0  0  0  0  0
    4.0030    1.5402    1.1261 H   0  0  0  0  0  0  0  0  0  0  0  0
    4.3451    3.2132    1.6617 H   0  0  0  0  0  0  0  0  0  0  0  0
    4.0798    2.8598   -0.0805 H   0  0  0  0  0  0  0  0  0  0  0  0
    2.1499    5.2937    1.8991 H   0  0  0  0  0  0  0  0  0  0  0  0
    0.4729    4.9708    1.3493 H   0  0  0  0  0  0  0  0  0  0  0  0
    1.7747    5.2420    0.1500 H   0  0  0  0  0  0  0  0  0  0  0  0
  1 26  1  1  0  0  0
  1  4  1  0  0  0  0
  2 26  1  0  0  0  0
  3 30  1  0  0  0  0
  5 21  1  0  0  0  0
  6 24  2  0  0  0  0
  8 13  1  1  0  0  0
  8  9  1  0  0  0  0
  9 14  1  6  0  0  0
 10  9  1  0  0  0  0
 10 15  1  0  0  0  0
 11 10  2  0  0  0  0
 12 17  1  6  0  0  0
 12 11  1  0  0  0  0
 12  8  1  0  0  0  0
 13 33  1  0  0  0  0
 13 18  1  0  0  0  0
 14 36  1  0  0  0  0
 14 35  1  0  0  0  0
 15 39  1  0  0  0  0
 16 11  1  0  0  0  0
 16 43  1  0  0  0  0
 18 47  1  6  0  0  0
 18  1  1  0  0  0  0
 18 19  1  0  0  0  0
 19 20  2  0  0  0  0
 20  4  1  0  0  0  0
 20  5  1  0  0  0  0
 21 49  1  0  0  0  0
 21 50  1  0  0  0  0
 21 48  1  0  0  0  0
 22 19  1  0  0  0  0
 22 51  1  0  0  0  0
 23 22  2  0  0  0  0
 24 23  1  0  0  0  0
 24  7  1  0  0  0  0
 25  7  1  0  0  0  0
 25 53  1  0  0  0  0
 26  3  1  0  0  0  0
 27 57  1  0  0  0  0
 27  2  1  0  0  0  0
 28  2  1  0  0  0  0
 28 61  1  0  0  0  0
 29  2  1  0  0  0  0
 29 64  1  0  0  0  0
 29 63  1  0  0  0  0
 30 67  1  0  0  0  0
 30 65  1  0  0  0  0
 30 66  1  0  0  0  0
 31 68  1  0  0  0  0
 31  3  1  0  0  0  0
 31 69  1  0  0  0  0
 32  3  1  0  0  0  0
 32 72  1  0  0  0  0
 32 71  1  0  0  0  0
 34 13  1  0  0  0  0
 37 14  1  0  0  0  0
 38 15  1  0  0  0  0
 40 15  1  0  0  0  0
 41 16  1  0  0  0  0
 42 16  1  0  0  0  0
 44 17  1  0  0  0  0
 45 17  1  0  0  0  0
 46 17  1  0  0  0  0
 52 23  1  0  0  0  0
 54 25  1  0  0  0  0
 55 25  1  0  0  0  0
 56 27  1  0  0  0  0
 58 27  1  0  0  0  0
 59 28  1  0  0  0  0
 60 28  1  0  0  0  0
 62 29  1  0  0  0  0
 70 31  1  0  0  0  0
 73 32  1  0  0  0  0
M  END
