5
q = 0.0, confidence = 0.994

 74 77  0  0  0  0  0  0  0  0999 V2000
    3.0763   -0.9173    0.8523 N   0  0  0  0  0  0  0  0  0  0  0  0
    2.2976   -2.4575   -0.4406 N   0  0  0  0  0  0  0  0  0  0  0  0
   -0.7467   -2.2340   -0.8607 N   0  0  0  0  0  0  0  0  0  0  0  0
   -3.8919   -1.1109    0.4021 N   0  0  0  0  0  0  0  0  0  0  0  0
    2.3406   -1.1000   -0.2870 C   0  0  0  0  0  2  0  0  0  0  0  0
    3.4862   -2.1306    1.3961 C   0  0  0  0  0  0  0  0  0  0  0  0
    4.0975   -2.1848    2.3013 H   0  0  0  0  0  0  0  0  0  0  0  0
    2.9831   -3.1091    0.5782 C   0  0  0  0  0  0  0  0  0  0  0  0
    3.0589   -4.1990    0.6342 H   0  0  0  0  0  0  0  0  0  0  0  0
    1.4399   -3.1228   -1.4242 C   0  0  0  0  0  0  0  0  0  0  0  0
    1.9059   -4.0877   -1.7006 H   0  0  0  0  0  0  0  0  0  0  0  0
    1.3920   -2.4668   -2.3138 H   0  0  0  0  0  0  0  0  0  0  0  0
    0.0429   -3.3196   -0.8572 C   0  0  0  0  0  0  0  0  0  0  0  0
   -0.3539   -4.5459   -0.2959 C   0  0  0  0  0  0  0  0  0  0  0  0
    0.3136   -5.4205   -0.3306 H   0  0  0  0  0  0  0  0  0  0  0  0
   -1.6198   -4.6250    0.3091 C   0  0  0  0  0  0  0  0  0  0  0  0
   -1.9643   -5.5679    0.7606 H   0  0  0  0  0  0  0  0  0  0  0  0
   -2.4321   -3.4900    0.3280 C   0  0  0  0  0  0  0  0  0  0  0  0
   -3.4294   -3.4761    0.7893 H   0  0  0  0  0  0  0  0  0  0  0  0
   -1.9591   -2.3051   -0.2821 C   0  0  0  0  0  0  0  0  0  0  0  0
   -2.8160   -1.0738   -0.3131 C   0  0  0  0  0  0  0  0  0  0  0  0
   -2.3457    0.0823   -1.1433 C   0  0  0  0  0  0  0  0  0  0  0  0
   -3.0248    0.9485   -1.0492 H   0  0  0  0  0  0  0  0  0  0  0  0
   -2.2560   -0.2047   -2.2108 H   0  0  0  0  0  0  0  0  0  0  0  0
   -1.3179    0.3864   -0.8602 H   0  0  0  0  0  0  0  0  0  0  0  0
   -4.8362   -0.0758    0.4404 C   0  0  0  0  0  0  0  0  0  0  0  0
   -5.7229    0.1475   -0.6474 C   0  0  0  0  0  0  0  0  0  0  0  0
   -6.7206    1.1289   -0.5068 C   0  0  0  0  0  0  0  0  0  0  0  0
   -7.4143    1.2934   -1.3479 H   0  0  0  0  0  0  0  0  0  0  0  0
   -6.8648    1.8974    0.6614 C   0  0  0  0  0  0  0  0  0  0  0  0
   -5.9799    1.6421    1.7267 C   0  0  0  0  0  0  0  0  0  0  0  0
   -6.0768    2.2203    2.6607 H   0  0  0  0  0  0  0  0  0  0  0  0
   -4.9771    0.6645    1.6459 C   0  0  0  0  0  0  0  0  0  0  0  0
   -4.0382    0.3957    2.7913 C   0  0  0  0  0  0  0  0  0  0  0  0
   -3.9269   -0.6962    2.9585 H   0  0  0  0  0  0  0  0  0  0  0  0
   -4.3916    0.8714    3.7264 H   0  0  0  0  0  0  0  0  0  0  0  0
   -3.0176    0.7812    2.5808 H   0  0  0  0  0  0  0  0  0  0  0  0
   -5.6160   -0.6719   -1.9080 C   0  0  0  0  0  0  0  0  0  0  0  0
   -4.7439   -0.3707   -2.5264 H   0  0  0  0  0  0  0  0  0  0  0  0
   -6.5204   -0.5552   -2.5353 H   0  0  0  0  0  0  0  0  0  0  0  0
   -5.4851   -1.7498   -1.6802 H   0  0  0  0  0  0  0  0  0  0  0  0
   -7.9187    2.9714    0.7697 C   0  0  0  0  0  0  0  0  0  0  0  0
   -7.4808    3.9825    0.6221 H   0  0  0  0  0  0  0  0  0  0  0  0
   -8.4000    2.9731    1.7689 H   0  0  0  0  0  0  0  0  0  0  0  0
   -8.7124    2.8433    0.0077 H   0  0  0  0  0  0  0  0  0  0  0  0
    3.2999    0.3730    1.4553 C   0  0  0  0  0  0  0  0  0  0  0  0
    2.4093    0.7878    2.4776 C   0  0  0  0  0  0  0  0  0  0  0  0
    2.6300    2.0547    3.0466 C   0  0  0  0  0  0  0  0  0  0  0  0
    1.9572    2.4159    3.8378 H   0  0  0  0  0  0  0  0  0  0  0  0
    3.6850    2.8681    2.6116 C   0  0  0  0  0  0  0  0  0  0  0  0
    3.8350    3.8586    3.0671 H   0  0  0  0  0  0  0  0  0  0  0  0
    4.5418    2.4317    1.5957 C   0  0  0  0  0  0  0  0  0  0  0  0
    5.3598    3.0841    1.2550 H   0  0  0  0  0  0  0  0  0  0  0  0
    4.3695    1.1712    0.9915 C   0  0  0  0  0  0  0  0  0  0  0  0
    5.2931    0.7241   -0.1333 C   0  0  0  0  0  0  0  0  0  0  0  0
    4.9922   -0.3013   -0.4288 H   0  0  0  0  0  0  0  0  0  0  0  0
    5.1244    1.6237   -1.3703 C   0  0  0  0  0  0  0  0  0  0  0  0
    4.0694    1.6426   -1.7141 H   0  0  0  0  0  0  0  0  0  0  0  0
    5.7540    1.2570   -2.2065 H   0  0  0  0  0  0  0  0  0  0  0  0
    5.4263    2.6691   -1.1535 H   0  0  0  0  0  0  0  0  0  0  0  0
    6.7580    0.6585    0.3305 C   0  0  0  0  0  0  0  0  0  0  0  0
    7.1388    1.6595    0.6203 H   0  0  0  0  0  0  0  0  0  0  0  0
    7.4068    0.2809   -0.4859 H   0  0  0  0  0  0  0  0  0  0  0  0
    6.8790   -0.0125    1.2050 H   0  0  0  0  0  0  0  0  0  0  0  0
    1.2123   -0.0638    2.8885 C   0  0  0  0  0  0  0  0  0  0  0  0
    1.4457   -1.1182    2.6328 H   0  0  0  0  0  0  0  0  0  0  0  0
    0.9246   -0.0180    4.3957 C   0  0  0  0  0  0  0  0  0  0  0  0
    1.8213   -0.2763    4.9943 H   0  0  0  0  0  0  0  0  0  0  0  0
    0.1193   -0.7356    4.6514 H   0  0  0  0  0  0  0  0  0  0  0  0
    0.5767    0.9842    4.7199 H   0  0  0  0  0  0  0  0  0  0  0  0
   -0.0311    0.3351    2.0707 C   0  0  0  0  0  0  0  0  0  0  0  0
   -0.3270    1.3822    2.2881 H   0  0  0  0  0  0  0  0  0  0  0  0
   -0.8886   -0.3260    2.3114 H   0  0  0  0  0  0  0  0  0  0  0  0
    0.1623    0.2613    0.9817 H   0  0  0  0  0  0  0  0  0  0  0  0
  1  6  1  0  0  0  0
  1 46  1  0  0  0  0
  2  5  1  0  0  0  0
  2  8  1  0  0  0  0
  3 13  2  0  0  0  0
  3 20  1  0  0  0  0
  4 26  1  0  0  0  0
  5  1  1  0  0  0  0
  6  7  1  0  0  0  0
  8  9  1  0  0  0  0
  8  6  2  0  0  0  0
 10 13  1  0  0  0  0
 10  2  1  0  0  0  0
 11 10  1  0  0  0  0
 12 10  1  0  0  0  0
 13 14  1  0  0  0  0
 14 16  2  0  0  0  0
 15 14  1  0  0  0  0
 16 18  1  0  0  0  0
 16 17  1  0  0  0  0
 18 19  1  0  0  0  0
 20 18  2  0  0  0  0
 21 20  1  0  0  0  0
 21  4  2  0  0  0  0
 22 23  1  0  0  0  0
 22 25  1  0  0  0  0
 22 21  1  0  0  0  0
 24 22  1  0  0  0  0
 26 33  1  0  0  0  0
 27 28  1  0  0  0  0
 27 26  2  0  0  0  0
 28 30  2  0  0  0  0
 29 28  1  0  0  0  0
 30 42  1  0  0  0  0
 30 31  1  0  0  0  0
 31 32  1  0  0  0  0
 33 31  2  0  0  0  0
 33 34  1  0  0  0  0
 34 35  1  0  0  0  0
 34 36  1  0  0  0  0
 37 34  1  0  0  0  0
 38 41  1  0  0  0  0
 38 27  1  0  0  0  0
 39 38  1  0  0  0  0
 40 38  1  0  0  0  0
 42 44  1  0  0  0  0
 43 42  1  0  0  0  0
 45 42  1  0  0  0  0
 46 47  1  0  0  0  0
 47 65  1  0  0  0  0
 47 48  2  0  0  0  0
 48 49  1  0  0  0  0
 50 48  1  0  0  0  0
 50 51  1  0  0  0  0
 52 50  2  0  0  0  0
 53 52  1  0  0  0  0
 54 46  2  0  0  0  0
 54 52  1  0  0  0  0
 55 61  1  0  0  0  0
 55 54  1  0  0  0  0
 56 55  1  0  0  0  0
 57 60  1  0  0  0  0
 57 55  1  0  0  0  0
 58 57  1  0  0  0  0
 59 57  1  0  0  0  0
 61 62  1  0  0  0  0
 61 64  1  0  0  0  0
 63 61  1  0  0  0  0
 65 67  1  0  0  0  0
 66 65  1  0  0  0  0
 67 69  1  0  0  0  0
 67 70  1  0  0  0  0
 67 68  1  0  0  0  0
 71 72  1  0  0  0  0
 71 73  1  0  0  0  0
 71 65  1  0  0  0  0
 74 71  1  0  0  0  0
M  END
