1
q = 0.0, confidence = 0.998

 49 51  0  0  0  0  0  0  0  0999 V2000
   -0.8193   -0.5630    0.4928 C   0  0  0  0  0  2  0  0  0  0  0  0
    0.3932   -0.7620   -0.3918 C   0  0  0  0  0  0  0  0  0  0  0  0
    1.5510   -0.0817    0.3736 C   0  0  0  0  0  0  0  0  0  0  0  0
    1.0924   -0.2677    1.7772 O   0  0  0  0  0  0  0  0  0  0  0  0
   -0.3161   -0.3120    1.6793 N   0  0  0  0  0  0  0  0  0  0  0  0
   -0.9276   -0.0252    2.9550 C   0  0  0  0  0  0  0  0  0  0  0  0
    2.8729   -0.8105    0.2234 C   0  0  0  0  0  0  0  0  0  0  0  0
    3.2025   -1.9189    1.0263 C   0  0  0  0  0  0  0  0  0  0  0  0
    4.3831   -2.6398    0.8271 C   0  0  0  0  0  0  0  0  0  0  0  0
    5.2941   -2.2866   -0.2082 C   0  0  0  0  0  0  0  0  0  0  0  0
    4.9514   -1.1689   -1.0203 C   0  0  0  0  0  0  0  0  0  0  0  0
    3.7716   -0.4530   -0.7995 C   0  0  0  0  0  0  0  0  0  0  0  0
    6.4632   -2.9969   -0.4141 N   0  0  0  0  0  0  0  0  0  0  0  0
    6.7740   -4.1356    0.4235 C   0  0  0  0  0  0  0  0  0  0  0  0
    7.3603   -2.6166   -1.4844 C   0  0  0  0  0  0  0  0  0  0  0  0
    1.6408    1.4194    0.1437 C   0  0  0  0  0  0  0  0  0  0  0  0
    2.6583    2.1488    0.7970 C   0  0  0  0  0  0  0  0  0  0  0  0
    2.7428    3.5374    0.7089 C   0  0  0  0  0  0  0  0  0  0  0  0
    1.7932    4.2827   -0.0506 C   0  0  0  0  0  0  0  0  0  0  0  0
    0.7666    3.5478   -0.7044 C   0  0  0  0  0  0  0  0  0  0  0  0
    0.6993    2.1543   -0.6014 C   0  0  0  0  0  0  0  0  0  0  0  0
    1.8693    5.6587   -0.1474 N   0  0  0  0  0  0  0  0  0  0  0  0
    2.9261    6.3764    0.5342 C   0  0  0  0  0  0  0  0  0  0  0  0
    0.8778    6.3838   -0.9150 C   0  0  0  0  0  0  0  0  0  0  0  0
    0.2569   -0.3809   -1.4188 H   0  0  0  0  0  0  0  0  0  0  0  0
    0.5725   -1.8558   -0.4779 H   0  0  0  0  0  0  0  0  0  0  0  0
   -2.0162   -0.1657    2.8611 H   0  0  0  0  0  0  0  0  0  0  0  0
   -0.5184   -0.7150    3.7190 H   0  0  0  0  0  0  0  0  0  0  0  0
   -0.6959    1.0185    3.2455 H   0  0  0  0  0  0  0  0  0  0  0  0
    2.5206   -2.2158    1.8359 H   0  0  0  0  0  0  0  0  0  0  0  0
    4.5977   -3.4878    1.4898 H   0  0  0  0  0  0  0  0  0  0  0  0
    5.6151   -0.8484   -1.8333 H   0  0  0  0  0  0  0  0  0  0  0  0
    3.5436    0.4119   -1.4405 H   0  0  0  0  0  0  0  0  0  0  0  0
    6.8621   -3.8560    1.4984 H   0  0  0  0  0  0  0  0  0  0  0  0
    6.0028   -4.9368    0.3514 H   0  0  0  0  0  0  0  0  0  0  0  0
    7.7404   -4.5693    0.1091 H   0  0  0  0  0  0  0  0  0  0  0  0
    6.8749   -2.6790   -2.4855 H   0  0  0  0  0  0  0  0  0  0  0  0
    7.7408   -1.5763   -1.3649 H   0  0  0  0  0  0  0  0  0  0  0  0
    8.2327   -3.2948   -1.4903 H   0  0  0  0  0  0  0  0  0  0  0  0
    3.4052    1.6047    1.3950 H   0  0  0  0  0  0  0  0  0  0  0  0
    3.5567    4.0507    1.2367 H   0  0  0  0  0  0  0  0  0  0  0  0
    0.0060    4.0625   -1.3046 H   0  0  0  0  0  0  0  0  0  0  0  0
   -0.1192    1.6471   -1.1290 H   0  0  0  0  0  0  0  0  0  0  0  0
    3.9376    6.0614    0.1903 H   0  0  0  0  0  0  0  0  0  0  0  0
    2.8241    7.4578    0.3316 H   0  0  0  0  0  0  0  0  0  0  0  0
    2.8908    6.2331    1.6386 H   0  0  0  0  0  0  0  0  0  0  0  0
    0.8705    6.0782   -1.9860 H   0  0  0  0  0  0  0  0  0  0  0  0
   -0.1528    6.2335   -0.5200 H   0  0  0  0  0  0  0  0  0  0  0  0
    1.1011    7.4651   -0.8742 H   0  0  0  0  0  0  0  0  0  0  0  0
  1  5  1  0  0  0  0
  2  3  1  0  0  0  0
  2  1  1  0  0  0  0
  3  4  1  0  0  0  0
  5  4  1  0  0  0  0
  5  6  1  0  0  0  0
  6 29  1  0  0  0  0
  6 28  1  0  0  0  0
  7  3  1  0  0  0  0
  7  8  1  0  0  0  0
  8 30  1  0  0  0  0
  9  8  2  0  0  0  0
  9 31  1  0  0  0  0
 10  9  1  0  0  0  0
 11 12  1  0  0  0  0
 11 10  2  0  0  0  0
 12  7  2  0  0  0  0
 13 10  1  0  0  0  0
 13 14  1  0  0  0  0
 14 34  1  0  0  0  0
 15 38  1  0  0  0  0
 15 13  1  0  0  0  0
 16  3  1  0  0  0  0
 16 17  1  0  0  0  0
 17 40  1  0  0  0  0
 18 17  2  0  0  0  0
 18 41  1  0  0  0  0
 19 18  1  0  0  0  0
 20 21  1  0  0  0  0
 20 19  2  0  0  0  0
 21 16  2  0  0  0  0
 22 19  1  0  0  0  0
 22 23  1  0  0  0  0
 23 46  1  0  0  0  0
 24 49  1  0  0  0  0
 24 48  1  0  0  0  0
 24 22  1  0  0  0  0
 25  2  1  0  0  0  0
 26  2  1  0  0  0  0
 27  6  1  0  0  0  0
 32 11  1  0  0  0  0
 33 12  1  0  0  0  0
 35 14  1  0  0  0  0
 36 14  1  0  0  0  0
 37 15  1  0  0  0  0
 39 15  1  0  0  0  0
 42 20  1  0  0  0  0
 43 21  1  0  0  0  0
 44 23  1  0  0  0  0
 45 23  1  0  0  0  0
 47 24  1  0  0  0  0
M  END
