15
q = 0.0, confidence = 0.998

 45 47  0  0  0  0  0  0  0  0999 V2000
   -0.0015    5.8678    0.0002 F   0  0  0  0  0  0  0  0  0  0  0  0
    3.0921   -1.6237    2.6068 F   0  0  0  0  0  0  0  0  0  0  0  0
    5.1426   -1.8957    1.8953 F   0  0  0  0  0  0  0  0  0  0  0  0
    4.6964   -0.3772    3.3949 F   0  0  0  0  0  0  0  0  0  0  0  0
    6.7493    0.6909   -1.8717 F   0  0  0  0  0  0  0  0  0  0  0  0
    6.6263    2.7561   -1.1815 F   0  0  0  0  0  0  0  0  0  0  0  0
    5.4034    2.1013   -2.8628 F   0  0  0  0  0  0  0  0  0  0  0  0
   -6.6280    2.7557    1.1787 F   0  0  0  0  0  0  0  0  0  0  0  0
   -5.4065    2.1008    2.8611 F   0  0  0  0  0  0  0  0  0  0  0  0
   -6.7520    0.6905    1.8691 F   0  0  0  0  0  0  0  0  0  0  0  0
   -5.1394   -1.9007   -1.8925 F   0  0  0  0  0  0  0  0  0  0  0  0
   -4.6985   -0.3818   -3.3933 F   0  0  0  0  0  0  0  0  0  0  0  0
   -3.0905   -1.6247   -2.6069 F   0  0  0  0  0  0  0  0  0  0  0  0
   -0.0001    0.3694    0.0003 N   0  0  0  0  0  2  0  0  0  0  0  0
    0.0005   -0.8243    0.0003 C   0  0  0  0  0  1  0  0  0  0  0  0
   -0.0005    1.7385    0.0002 C   0  0  0  0  0  0  0  0  0  0  0  0
    1.2378    2.4423    0.0734 C   0  0  0  0  0  0  0  0  0  0  0  0
    1.2194    3.8474    0.0567 C   0  0  0  0  0  0  0  0  0  0  0  0
    2.1552    4.4203    0.1171 H   0  0  0  0  0  0  0  0  0  0  0  0
   -0.0012    4.5276    0.0002 C   0  0  0  0  0  0  0  0  0  0  0  0
   -1.2215    3.8468   -0.0564 C   0  0  0  0  0  0  0  0  0  0  0  0
   -2.1575    4.4193   -0.1169 H   0  0  0  0  0  0  0  0  0  0  0  0
   -1.2392    2.4417   -0.0731 C   0  0  0  0  0  0  0  0  0  0  0  0
    2.5338    1.7179    0.1512 C   0  0  0  0  0  0  0  0  0  0  0  0
    2.7595    0.7244    1.1259 C   0  0  0  0  0  0  0  0  0  0  0  0
    1.9748    0.4750    1.8532 H   0  0  0  0  0  0  0  0  0  0  0  0
    3.9872    0.0499    1.1799 C   0  0  0  0  0  0  0  0  0  0  0  0
    4.2325   -0.9724    2.2692 C   0  0  0  0  0  0  0  0  0  0  0  0
    5.0049    0.3466    0.2614 C   0  0  0  0  0  0  0  0  0  0  0  0
    5.9536   -0.2059    0.2877 H   0  0  0  0  0  0  0  0  0  0  0  0
    4.7909    1.3438   -0.7002 C   0  0  0  0  0  0  0  0  0  0  0  0
    5.8978    1.7186   -1.6622 C   0  0  0  0  0  0  0  0  0  0  0  0
    3.5660    2.0263   -0.7565 C   0  0  0  0  0  0  0  0  0  0  0  0
    3.4012    2.7841   -1.5359 H   0  0  0  0  0  0  0  0  0  0  0  0
   -2.5349    1.7168   -0.1511 C   0  0  0  0  0  0  0  0  0  0  0  0
   -3.5679    2.0256    0.7556 C   0  0  0  0  0  0  0  0  0  0  0  0
   -3.4038    2.7841    1.5345 H   0  0  0  0  0  0  0  0  0  0  0  0
   -4.7925    1.3429    0.6990 C   0  0  0  0  0  0  0  0  0  0  0  0
   -5.9001    1.7180    1.6601 C   0  0  0  0  0  0  0  0  0  0  0  0
   -5.0056    0.3447   -0.2619 C   0  0  0  0  0  0  0  0  0  0  0  0
   -5.9542   -0.2079   -0.2884 H   0  0  0  0  0  0  0  0  0  0  0  0
   -3.9872    0.0475   -1.1794 C   0  0  0  0  0  0  0  0  0  0  0  0
   -4.2317   -0.9756   -2.2681 C   0  0  0  0  0  0  0  0  0  0  0  0
   -2.7597    0.7224   -1.1251 C   0  0  0  0  0  0  0  0  0  0  0  0
   -1.9745    0.4725   -1.8518 H   0  0  0  0  0  0  0  0  0  0  0  0
  1 20  1  0  0  0  0
  3 28  1  0  0  0  0
  5 32  1  0  0  0  0
  7 32  1  0  0  0  0
  8 39  1  0  0  0  0
 12 43  1  0  0  0  0
 13 43  1  0  0  0  0
 14 15  1  0  0  0  0
 16 14  1  0  0  0  0
 16 17  1  0  0  0  0
 17 24  1  0  0  0  0
 18 17  2  0  0  0  0
 18 19  1  0  0  0  0
 20 18  1  0  0  0  0
 21 20  2  0  0  0  0
 22 21  1  0  0  0  0
 23 21  1  0  0  0  0
 23 16  2  0  0  0  0
 24 25  1  0  0  0  0
 25 27  2  0  0  0  0
 25 26  1  0  0  0  0
 27 28  1  0  0  0  0
 28  2  1  0  0  0  0
 28  4  1  0  0  0  0
 29 30  1  0  0  0  0
 29 27  1  0  0  0  0
 31 29  2  0  0  0  0
 32  6  1  0  0  0  0
 32 31  1  0  0  0  0
 33 31  1  0  0  0  0
 33 24  2  0  0  0  0
 34 33  1  0  0  0  0
 35 23  1  0  0  0  0
 35 36  1  0  0  0  0
 36 37  1  0  0  0  0
 38 36  2  0  0  0  0
 38 39  1  0  0  0  0
 39 10  1  0  0  0  0
 39  9  1  0  0  0  0
 40 38  1  0  0  0  0
 41 40  1  0  0  0  0
 42 44  1  0  0  0  0
 42 40  2  0  0  0  0
 43 11  1  0  0  0  0
 43 42  1  0  0  0  0
 44 35  2  0  0  0  0
 45 44  1  0  0  0  0
M  END
