2
q = -1.0, confidence = 0.0

 27 27  0  0  0  0  0  0  0  0999 V2000
    8.3972   -0.0937   -0.0013 Si  0  0  0  0  0  0  0  0  0  0  0  0
   -1.6186    0.4322    0.0015 C   0  0  0  0  0  3  0  0  0  0  0  0
   -0.3780    0.3948    0.0021 C   0  0  0  0  0  0  0  0  0  0  0  0
    1.0425    0.3169    0.0026 C   0  0  0  0  0  0  0  0  0  0  0  0
    1.8463    1.4904    0.0028 C   0  0  0  0  0  0  0  0  0  0  0  0
    1.3480    2.4707    0.0028 H   0  0  0  0  0  0  0  0  0  0  0  0
    3.2380    1.4129    0.0030 C   0  0  0  0  0  0  0  0  0  0  0  0
    3.8427    2.3316    0.0030 H   0  0  0  0  0  0  0  0  0  0  0  0
    3.8995    0.1562    0.0030 C   0  0  0  0  0  0  0  0  0  0  0  0
    3.1025   -1.0189    0.0030 C   0  0  0  0  0  0  0  0  0  0  0  0
    3.6010   -1.9994    0.0030 H   0  0  0  0  0  0  0  0  0  0  0  0
    1.7110   -0.9390    0.0028 C   0  0  0  0  0  0  0  0  0  0  0  0
    1.1081   -1.8592    0.0027 H   0  0  0  0  0  0  0  0  0  0  0  0
    5.3214    0.0762    0.0027 C   0  0  0  0  0  0  0  0  0  0  0  0
    6.5567    0.0065    0.0017 C   0  0  0  0  0  0  0  0  0  0  0  0
    8.9902   -0.5617    1.7336 C   0  0  0  0  0  0  0  0  0  0  0  0
   10.0977   -0.6299    1.7635 H   0  0  0  0  0  0  0  0  0  0  0  0
    8.6698    0.1943    2.4786 H   0  0  0  0  0  0  0  0  0  0  0  0
    8.5751   -1.5423    2.0426 H   0  0  0  0  0  0  0  0  0  0  0  0
    8.9341   -1.4131   -1.2466 C   0  0  0  0  0  0  0  0  0  0  0  0
   10.0402   -1.5006   -1.2720 H   0  0  0  0  0  0  0  0  0  0  0  0
    8.5155   -2.4041   -0.9781 H   0  0  0  0  0  0  0  0  0  0  0  0
    8.5835   -1.1596   -2.2674 H   0  0  0  0  0  0  0  0  0  0  0  0
    9.0952    1.5937   -0.4947 C   0  0  0  0  0  0  0  0  0  0  0  0
   10.2047    1.5705   -0.5070 H   0  0  0  0  0  0  0  0  0  0  0  0
    8.7443    1.8869   -1.5047 H   0  0  0  0  0  0  0  0  0  0  0  0
    8.7742    2.3785    0.2197 H   0  0  0  0  0  0  0  0  0  0  0  0
  1 15  1  0  0  0  0
  1 16  1  0  0  0  0
  2  3  3  0  0  0  0
  3  4  1  0  0  0  0
  4 12  2  0  0  0  0
  4  5  1  0  0  0  0
  5  7  2  0  0  0  0
  6  5  1  0  0  0  0
  7  8  1  0  0  0  0
  9  7  1  0  0  0  0
 10  9  2  0  0  0  0
 11 10  1  0  0  0  0
 12 10  1  0  0  0  0
 13 12  1  0  0  0  0
 14  9  1  0  0  0  0
 15 14  3  0  0  0  0
 16 17  1  0  0  0  0
 16 19  1  0  0  0  0
 16 18  1  0  0  0  0
 20 22  1  0  0  0  0
 20  1  1  0  0  0  0
 21 20  1  0  0  0  0
 23 20  1  0  0  0  0
 24  1  1  0  0  0  0
 24 27  1  0  0  0  0
 25 24  1  0  0  0  0
 26 24  1  0  0  0  0
M  END
