1,2,3
q = -2.0, confidence = 0.878

 40 42  0  0  0  0  0  0  0  0999 V2000
   -1.9788   -0.0476    0.2225 P   0  0  0  0  0  0  0  0  0  0  0  0
    0.0092    0.1552   -1.7161 O   0  5  0  0  0  0  0  0  0  0  0  0
   -1.4801   -2.3767   -1.4666 O   0  5  0  0  0  0  0  0  0  0  0  0
   -0.7228    1.2611   -1.7358 C   0  0  0  0  0  0  0  0  0  0  0  0
   -1.8166    1.4089   -0.8361 C   0  0  0  0  0  0  0  0  0  0  0  0
   -2.6616    2.5318   -0.9017 C   0  0  0  0  0  0  0  0  0  0  0  0
   -3.5357    2.6007   -0.2340 H   0  0  0  0  0  0  0  0  0  0  0  0
   -2.4151    3.5672   -1.8199 C   0  0  0  0  0  0  0  0  0  0  0  0
   -1.3070    3.4251   -2.6906 C   0  0  0  0  0  0  0  0  0  0  0  0
   -1.1028    4.2214   -3.4253 H   0  0  0  0  0  0  0  0  0  0  0  0
   -0.4747    2.3046   -2.6605 C   0  0  0  0  0  0  0  0  0  0  0  0
    0.3731    2.1987   -3.3523 H   0  0  0  0  0  0  0  0  0  0  0  0
   -3.2994    4.7872   -1.8894 C   0  0  0  0  0  0  0  0  0  0  0  0
   -4.1448    4.7182   -1.1774 H   0  0  0  0  0  0  0  0  0  0  0  0
   -3.7254    4.9256   -2.9052 H   0  0  0  0  0  0  0  0  0  0  0  0
   -2.7345    5.7136   -1.6507 H   0  0  0  0  0  0  0  0  0  0  0  0
   -2.7872   -2.1483   -1.2855 C   0  0  0  0  0  0  0  0  0  0  0  0
   -3.2925   -1.1148   -0.4411 C   0  0  0  0  0  0  0  0  0  0  0  0
   -4.6752   -0.9251   -0.2637 C   0  0  0  0  0  0  0  0  0  0  0  0
   -5.0279   -0.1161    0.3980 H   0  0  0  0  0  0  0  0  0  0  0  0
   -5.6109   -1.7520   -0.9067 C   0  0  0  0  0  0  0  0  0  0  0  0
   -5.1059   -2.7717   -1.7503 C   0  0  0  0  0  0  0  0  0  0  0  0
   -5.8178   -3.4326   -2.2717 H   0  0  0  0  0  0  0  0  0  0  0  0
   -3.7376   -2.9718   -1.9419 C   0  0  0  0  0  0  0  0  0  0  0  0
   -3.3601   -3.7720   -2.5949 H   0  0  0  0  0  0  0  0  0  0  0  0
   -7.0956   -1.5720   -0.7113 C   0  0  0  0  0  0  0  0  0  0  0  0
   -7.5581   -2.4678   -0.2446 H   0  0  0  0  0  0  0  0  0  0  0  0
   -7.6178   -1.4103   -1.6778 H   0  0  0  0  0  0  0  0  0  0  0  0
   -7.3175   -0.7041   -0.0601 H   0  0  0  0  0  0  0  0  0  0  0  0
   -2.4293    0.4482    1.9179 C   0  0  0  0  0  0  0  0  0  0  0  0
   -2.3581    1.7886    2.3545 C   0  0  0  0  0  0  0  0  0  0  0  0
   -2.0989    2.5833    1.6394 H   0  0  0  0  0  0  0  0  0  0  0  0
   -2.6077    2.1021    3.7014 C   0  0  0  0  0  0  0  0  0  0  0  0
   -2.5614    3.1506    4.0349 H   0  0  0  0  0  0  0  0  0  0  0  0
   -2.9270    1.0844    4.6165 C   0  0  0  0  0  0  0  0  0  0  0  0
   -3.1208    1.3319    5.6710 H   0  0  0  0  0  0  0  0  0  0  0  0
   -3.0017   -0.2487    4.1805 C   0  0  0  0  0  0  0  0  0  0  0  0
   -3.2474   -1.0491    4.8944 H   0  0  0  0  0  0  0  0  0  0  0  0
   -2.7551   -0.5694    2.8380 C   0  0  0  0  0  0  0  0  0  0  0  0
   -2.7961   -1.6160    2.4997 H   0  0  0  0  0  0  0  0  0  0  0  0
  1 30  1  0  0  0  0
  3 17  1  0  0  0  0
  4  2  1  0  0  0  0
  4  5  1  0  0  0  0
  5  1  1  0  0  0  0
  6  5  2  0  0  0  0
  6  7  1  0  0  0  0
  8  6  1  0  0  0  0
  9 11  1  0  0  0  0
  9  8  2  0  0  0  0
 10  9  1  0  0  0  0
 11  4  2  0  0  0  0
 12 11  1  0  0  0  0
 13  8  1  0  0  0  0
 13 16  1  0  0  0  0
 13 14  1  0  0  0  0
 15 13  1  0  0  0  0
 17 18  1  0  0  0  0
 18 19  2  0  0  0  0
 18  1  1  0  0  0  0
 19 20  1  0  0  0  0
 21 26  1  0  0  0  0
 21 19  1  0  0  0  0
 22 21  2  0  0  0  0
 23 22  1  0  0  0  0
 24 22  1  0  0  0  0
 24 17  2  0  0  0  0
 25 24  1  0  0  0  0
 26 27  1  0  0  0  0
 26 29  1  0  0  0  0
 28 26  1  0  0  0  0
 30 31  2  0  0  0  0
 30 39  1  0  0  0  0
 31 33  1  0  0  0  0
 32 31  1  0  0  0  0
 33 34  1  0  0  0  0
 33 35  2  0  0  0  0
 35 36  1  0  0  0  0
 37 35  1  0  0  0  0
 37 38  1  0  0  0  0
 39 37  2  0  0  0  0
 40 39  1  0  0  0  0
M  CHG  2   2  -1   3  -1
M  END
