1,3,4
 OpenBabel05122313063D

 47 49  0  0  0  0  0  0  0  0999 V2000
   -1.2712    1.1702    0.3194 P   0  0  0  0  0  0  0  0  0  0  0  0
   -3.9498   -2.3323   -0.0690 Si  0  0  0  0  0  0  0  0  0  0  0  0
    0.8232    1.7097   -1.3525 O   0  5  0  0  0  0  0  0  0  0  0  0
   -1.4787    0.4221   -2.5077 O   0  5  0  0  0  0  0  0  0  0  0  0
   -3.2818   -0.8618    0.5574 O   0  0  0  0  0  0  0  0  0  0  0  0
   -0.2297    2.6382    0.5642 C   0  0  0  0  0  0  0  0  0  0  0  0
   -0.3360    3.6711    1.5084 C   0  0  0  0  0  0  0  0  0  0  0  0
    0.6179    4.7021    1.5257 C   0  0  0  0  0  0  0  0  0  0  0  0
    1.6632    4.7025    0.5835 C   0  0  0  0  0  0  0  0  0  0  0  0
    1.7600    3.7005   -0.3920 C   0  0  0  0  0  0  0  0  0  0  0  0
    0.7997    2.6656   -0.4230 C   0  0  0  0  0  0  0  0  0  0  0  0
   -2.6419    1.6636   -0.7762 C   0  0  0  0  0  0  0  0  0  0  0  0
   -3.7490    2.4342   -0.3885 C   0  0  0  0  0  0  0  0  0  0  0  0
   -4.7469    2.7490   -1.3219 C   0  0  0  0  0  0  0  0  0  0  0  0
   -4.6214    2.2877   -2.6467 C   0  0  0  0  0  0  0  0  0  0  0  0
   -3.5201    1.5199   -3.0431 C   0  0  0  0  0  0  0  0  0  0  0  0
   -2.5090    1.1876   -2.1096 C   0  0  0  0  0  0  0  0  0  0  0  0
   -1.9669    0.5786    1.8880 C   0  0  0  0  0  0  0  0  0  0  0  0
   -1.5514    1.0298    3.1531 C   0  0  0  0  0  0  0  0  0  0  0  0
   -2.1095    0.4917    4.3210 C   0  0  0  0  0  0  0  0  0  0  0  0
   -3.0785   -0.5187    4.2245 C   0  0  0  0  0  0  0  0  0  0  0  0
   -3.4895   -0.9974    2.9729 C   0  0  0  0  0  0  0  0  0  0  0  0
   -2.9382   -0.4612    1.7895 C   0  0  0  0  0  0  0  0  0  0  0  0
   -5.7661   -2.4234    0.4321 C   0  0  0  0  0  0  0  0  0  0  0  0
   -2.9420   -3.7616    0.6182 C   0  0  0  0  0  0  0  0  0  0  0  0
   -3.7818   -2.1280   -1.9185 C   0  0  0  0  0  0  0  0  0  0  0  0
   -1.1658    3.6795    2.2305 H   0  0  0  0  0  0  0  0  0  0  0  0
    0.5406    5.5094    2.2686 H   0  0  0  0  0  0  0  0  0  0  0  0
    2.4132    5.5083    0.6019 H   0  0  0  0  0  0  0  0  0  0  0  0
    2.5658    3.6954   -1.1395 H   0  0  0  0  0  0  0  0  0  0  0  0
   -3.8322    2.7804    0.6542 H   0  0  0  0  0  0  0  0  0  0  0  0
   -5.6167    3.3516   -1.0217 H   0  0  0  0  0  0  0  0  0  0  0  0
   -5.3998    2.5336   -3.3859 H   0  0  0  0  0  0  0  0  0  0  0  0
   -3.4124    1.1501   -4.0731 H   0  0  0  0  0  0  0  0  0  0  0  0
   -0.7600    1.7866    3.2267 H   0  0  0  0  0  0  0  0  0  0  0  0
   -1.7737    0.8532    5.3035 H   0  0  0  0  0  0  0  0  0  0  0  0
   -3.5218   -0.9474    5.1364 H   0  0  0  0  0  0  0  0  0  0  0  0
   -4.2489   -1.7887    2.9016 H   0  0  0  0  0  0  0  0  0  0  0  0
   -6.2871   -1.4826    0.1605 H   0  0  0  0  0  0  0  0  0  0  0  0
   -5.9115   -2.5970    1.5171 H   0  0  0  0  0  0  0  0  0  0  0  0
   -6.2648   -3.2544   -0.1092 H   0  0  0  0  0  0  0  0  0  0  0  0
   -2.9967   -3.8161    1.7240 H   0  0  0  0  0  0  0  0  0  0  0  0
   -1.8815   -3.6286    0.3253 H   0  0  0  0  0  0  0  0  0  0  0  0
   -3.3047   -4.7272    0.2095 H   0  0  0  0  0  0  0  0  0  0  0  0
   -4.3317   -1.2286   -2.2619 H   0  0  0  0  0  0  0  0  0  0  0  0
   -4.1924   -3.0128   -2.4465 H   0  0  0  0  0  0  0  0  0  0  0  0
   -2.7194   -2.0042   -2.2058 H   0  0  0  0  0  0  0  0  0  0  0  0
  1  6  1  0  0  0  0
  1 18  1  0  0  0  0
  2 24  1  0  0  0  0
  2  5  1  0  0  0  0
  2 25  1  0  0  0  0
  3 11  1  0  0  0  0
  4 17  1  0  0  0  0
  5 23  1  0  0  0  0
  6  7  1  0  0  0  0
  7  8  2  0  0  0  0
  7 27  1  0  0  0  0
  8 28  1  0  0  0  0
  9 29  1  0  0  0  0
  9  8  1  0  0  0  0
 10  9  2  0  0  0  0
 11 10  1  0  0  0  0
 11  6  2  0  0  0  0
 12 13  1  0  0  0  0
 12  1  1  0  0  0  0
 13 31  1  0  0  0  0
 14 32  1  0  0  0  0
 14 13  2  0  0  0  0
 15 14  1  0  0  0  0
 16 15  2  0  0  0  0
 16 17  1  0  0  0  0
 17 12  2  0  0  0  0
 18 19  1  0  0  0  0
 19 35  1  0  0  0  0
 19 20  2  0  0  0  0
 20 36  1  0  0  0  0
 21 20  1  0  0  0  0
 21 37  1  0  0  0  0
 22 21  2  0  0  0  0
 23 18  2  0  0  0  0
 23 22  1  0  0  0  0
 24 40  1  0  0  0  0
 25 42  1  0  0  0  0
 26  2  1  0  0  0  0
 30 10  1  0  0  0  0
 33 15  1  0  0  0  0
 34 16  1  0  0  0  0
 38 22  1  0  0  0  0
 39 24  1  0  0  0  0
 41 24  1  0  0  0  0
 43 25  1  0  0  0  0
 44 25  1  0  0  0  0
 45 26  1  0  0  0  0
 46 26  1  0  0  0  0
 47 26  1  0  0  0  0
M  CHG  2   3  -1   4  -1
M  END
