1,4,5
q = -2.0, confidence = 0.976

 35 37  0  0  0  0  0  0  0  0999 V2000
   -0.8153    0.2891    0.0796 P   0  0  0  0  0  0  0  0  0  0  0  0
   -1.9705   -2.3327    0.7888 O   0  0  0  0  0  0  0  0  0  0  0  0
   -2.3221   -3.2200    0.9902 H   0  0  0  0  0  0  0  0  0  0  0  0
    1.6931    1.5490   -0.7394 O   0  5  0  0  0  0  0  0  0  0  0  0
    1.5573   -0.0347    1.7058 O   0  5  0  0  0  0  0  0  0  0  0  0
   -2.3112   -0.4624   -0.6275 C   0  0  0  0  0  0  0  0  0  0  0  0
   -3.0219    0.1532   -1.6775 C   0  0  0  0  0  0  0  0  0  0  0  0
   -2.6838    1.1316   -2.0481 H   0  0  0  0  0  0  0  0  0  0  0  0
   -4.1397   -0.4685   -2.2509 C   0  0  0  0  0  0  0  0  0  0  0  0
   -4.6841    0.0266   -3.0675 H   0  0  0  0  0  0  0  0  0  0  0  0
   -4.5537   -1.7234   -1.7770 C   0  0  0  0  0  0  0  0  0  0  0  0
   -5.4322   -2.2195   -2.2164 H   0  0  0  0  0  0  0  0  0  0  0  0
   -3.8484   -2.3614   -0.7482 C   0  0  0  0  0  0  0  0  0  0  0  0
   -4.1633   -3.3534   -0.3855 H   0  0  0  0  0  0  0  0  0  0  0  0
   -2.7190   -1.7458   -0.1770 C   0  0  0  0  0  0  0  0  0  0  0  0
    0.6773    2.3961   -0.7524 C   0  0  0  0  0  0  0  0  0  0  0  0
    0.9100    3.7653   -1.0677 C   0  0  0  0  0  0  0  0  0  0  0  0
    1.9397    4.0673   -1.3076 H   0  0  0  0  0  0  0  0  0  0  0  0
   -0.1371    4.6861   -1.0568 C   0  0  0  0  0  0  0  0  0  0  0  0
    0.0730    5.7390   -1.3021 H   0  0  0  0  0  0  0  0  0  0  0  0
   -1.4543    4.2975   -0.7274 C   0  0  0  0  0  0  0  0  0  0  0  0
   -2.2670    5.0377   -0.7064 H   0  0  0  0  0  0  0  0  0  0  0  0
   -1.7101    2.9598   -0.4149 C   0  0  0  0  0  0  0  0  0  0  0  0
   -2.7263    2.6448   -0.1300 H   0  0  0  0  0  0  0  0  0  0  0  0
   -0.6665    2.0097   -0.4530 C   0  0  0  0  0  0  0  0  0  0  0  0
   -0.8364    0.2719    1.8849 C   0  0  0  0  0  0  0  0  0  0  0  0
   -1.9747    0.4675    2.6871 C   0  0  0  0  0  0  0  0  0  0  0  0
   -2.9677    0.5417    2.2152 H   0  0  0  0  0  0  0  0  0  0  0  0
   -1.8380    0.5611    4.0764 C   0  0  0  0  0  0  0  0  0  0  0  0
   -2.7224    0.7056    4.7137 H   0  0  0  0  0  0  0  0  0  0  0  0
   -0.5503    0.4724    4.6469 C   0  0  0  0  0  0  0  0  0  0  0  0
   -0.4346    0.5514    5.7393 H   0  0  0  0  0  0  0  0  0  0  0  0
    0.5860    0.2800    3.8576 C   0  0  0  0  0  0  0  0  0  0  0  0
    1.5890    0.2054    4.3022 H   0  0  0  0  0  0  0  0  0  0  0  0
    0.4728    0.1647    2.4449 C   0  0  0  0  0  0  0  0  0  0  0  0
  1 26  1  0  0  0  0
  2  3  1  0  0  0  0
  5 35  1  0  0  0  0
  6 15  1  0  0  0  0
  6  1  1  0  0  0  0
  7  6  2  0  0  0  0
  8  7  1  0  0  0  0
  9 11  2  0  0  0  0
  9  7  1  0  0  0  0
 10  9  1  0  0  0  0
 11 13  1  0  0  0  0
 12 11  1  0  0  0  0
 13 14  1  0  0  0  0
 13 15  2  0  0  0  0
 15  2  1  0  0  0  0
 16  4  1  0  0  0  0
 16 25  1  0  0  0  0
 17 19  1  0  0  0  0
 17 16  2  0  0  0  0
 18 17  1  0  0  0  0
 19 21  2  0  0  0  0
 20 19  1  0  0  0  0
 21 22  1  0  0  0  0
 21 23  1  0  0  0  0
 23 24  1  0  0  0  0
 25 23  2  0  0  0  0
 25  1  1  0  0  0  0
 26 35  2  0  0  0  0
 26 27  1  0  0  0  0
 27 29  2  0  0  0  0
 28 27  1  0  0  0  0
 29 31  1  0  0  0  0
 29 30  1  0  0  0  0
 31 32  1  0  0  0  0
 33 34  1  0  0  0  0
 33 31  2  0  0  0  0
 35 33  1  0  0  0  0
M  CHG  2   4  -1   5  -1
M  END
