2,3,4
q = -2.0, confidence = 0.68

  5  4  0  0  0  0  0  0  0  0999 V2000
   -0.8317   -0.0012    3.0998 S   0  0  0  0  0  0  0  0  0  0  0  0
   -1.2921   -1.2233    2.2012 O   0  0  0  0  0  0  0  0  0  0  0  0
   -1.2975    1.2180    2.1998 O   0  0  0  0  0  0  0  0  0  0  0  0
    0.7004    0.0022    2.8818 O   0  0  0  0  0  0  0  0  0  0  0  0
   -1.3192   -0.0015    4.4792 O   0  0  0  0  0  0  0  0  0  0  0  0
  1  5  1  0  0  0  0
  2  1  1  0  0  0  0
  3  1  1  0  0  0  0
  4  1  1  0  0  0  0
M  END
