4,5,6
q = -3.0, confidence = 0.4

 12 12  0  0  0  0  0  0  0  0999 V2000
   -2.4389   -1.9967    1.5026 P   0  0  1  0  0  0  0  0  0  0  0  0
   -1.5140    0.2239    3.2030 P   0  0  1  0  0  0  0  0  0  0  0  0
    0.2522   -2.0918    2.6539 P   0  0  2  0  0  0  0  0  0  0  0  0
   -1.8316   -1.2805    0.2463 O   0  0  0  0  0  0  0  0  0  0  0  0
   -0.9922    1.0023    1.9443 O   0  0  0  0  0  0  0  0  0  0  0  0
    0.8355   -1.4113    1.3592 O   0  0  0  0  0  0  0  0  0  0  0  0
   -1.1763   -2.8255    2.2059 O   0  0  0  0  0  0  0  0  0  0  0  0
   -2.7078   -0.8084    2.6400 O   0  0  0  0  0  0  0  0  0  0  0  0
   -0.3252   -0.8638    3.6204 O   0  0  0  0  0  0  0  0  0  0  0  0
   -3.6389   -2.8630    1.3138 O   0  0  0  0  0  0  0  0  0  0  0  0
   -1.9943    1.0080    4.3757 O   0  0  0  0  0  0  0  0  0  0  0  0
    1.1410   -3.0206    3.4072 O   0  0  0  0  0  0  0  0  0  0  0  0
  1  4  1  6  0  0  0
  1  7  1  0  0  0  0
  1  8  1  0  0  0  0
  2  5  1  6  0  0  0
  2  9  1  0  0  0  0
  2 11  2  0  0  0  0
  3  6  1  6  0  0  0
  3 12  2  0  0  0  0
  3  9  1  0  0  0  0
  7  3  1  0  0  0  0
  8  2  1  0  0  0  0
 10  1  2  0  0  0  0
M  END
