2,4,5
q = -1.0, confidence = 0.014

 22 23  0  0  1  0  0  0  0  0999 V2000
   -3.0327    0.2720   -1.3065 S   0  0  0  0  0  0  0  0  0  0  0  0
   -1.9303   -0.7908   -1.1855 O   0  0  0  0  0  1  0  0  0  0  0  0
   -3.9861    0.1423   -2.4049 O   0  0  0  0  0  1  0  0  0  0  0  0
   -2.2601    1.6128   -1.2113 O   0  0  0  0  0  1  0  0  0  0  0  0
   -1.7778    0.2851    1.4107 O   0  5  0  0  0  0  0  0  0  0  0  0
   -3.9525    0.2404    0.3716 C   0  0  2  0  0  0  0  0  0  0  0  0
   -2.9420   -0.2231    1.4092 C   0  0  0  0  0  0  0  0  0  0  0  0
   -3.3139   -1.2481    2.3296 C   0  0  0  0  0  0  0  0  0  0  0  0
   -4.5305   -1.8881    2.2134 C   0  0  0  0  0  3  0  0  0  0  0  0
   -5.5214   -1.5457    1.2274 C   0  0  0  0  0  0  0  0  0  0  0  0
   -6.7627   -2.2278    1.1867 C   0  0  0  0  0  0  0  0  0  0  0  0
   -7.7436   -1.8554    0.2651 C   0  0  0  0  0  0  0  0  0  0  0  0
   -7.4983   -0.7866   -0.6143 C   0  0  0  0  0  0  0  0  0  0  0  0
   -6.2736   -0.0970   -0.5855 C   0  0  0  0  0  0  0  0  0  0  0  0
   -5.2690   -0.4783    0.3150 C   0  0  0  0  0  0  0  0  0  0  0  0
   -4.1075    1.3329    0.5096 H   0  0  0  0  0  0  0  0  0  0  0  0
   -2.5749   -1.5403    3.0887 H   0  0  0  0  0  0  0  0  0  0  0  0
   -4.7671   -2.7112    2.9076 H   0  0  0  0  0  0  0  0  0  0  0  0
   -6.9455   -3.0477    1.8977 H   0  0  0  0  0  0  0  0  0  0  0  0
   -8.7048   -2.3884    0.2339 H   0  0  0  0  0  0  0  0  0  0  0  0
   -8.2707   -0.4809   -1.3355 H   0  0  0  0  0  0  0  0  0  0  0  0
   -6.0995    0.7304   -1.2864 H   0  0  0  0  0  0  0  0  0  0  0  0
  1  4  1  0  0  0  0
  1  2  1  0  0  0  0
  1  6  1  0  0  0  0
  3  1  1  0  0  0  0
  6 16  1  1  0  0  0
  6  7  1  0  0  0  0
  7  5  1  0  0  0  0
  7  8  2  0  0  0  0
  8 17  1  0  0  0  0
  9  8  1  0  0  0  0
  9 18  1  0  0  0  0
 10  9  1  0  0  0  0
 11 10  1  0  0  0  0
 11 19  1  0  0  0  0
 12 11  2  0  0  0  0
 13 14  2  0  0  0  0
 13 12  1  0  0  0  0
 14 15  1  0  0  0  0
 15  6  1  0  0  0  0
 15 10  2  0  0  0  0
 20 12  1  0  0  0  0
 21 13  1  0  0  0  0
 22 14  1  0  0  0  0
M  CHG  1   5  -1
M  END
