4,6,8
q = -2.0, confidence = 0.6

  8  8  0  0  1  0  0  0  0  0999 V2000
    3.2438   -0.7946   -0.1937 C   0  0  0  0  0  0  0  0  0  0  0  0
    3.4900   -1.9746   -0.4621 O   0  0  0  0  0  0  0  0  0  0  0  0
    3.0052    0.5154   -0.9453 C   0  0  1  0  0  0  0  0  0  0  0  0
    2.0617    0.7243   -1.8145 O   0  0  0  0  0  0  0  0  0  0  0  0
    3.0067    0.0850    1.0350 C   0  0  2  0  0  0  0  0  0  0  0  0
    2.0691   -0.0635    1.9219 O   0  0  0  0  0  0  0  0  0  0  0  0
    3.0461    1.4012    0.2783 C   0  0  2  0  0  0  0  0  0  0  0  0
    2.2025    2.3930    0.4998 O   0  0  0  0  0  0  0  0  0  0  0  0
  1  5  1  0  0  0  0
  2  1  2  0  0  0  0
  3  4  1  1  0  0  0
  3  1  1  0  0  0  0
  3  7  1  0  0  0  0
  5  6  1  6  0  0  0
  7  8  1  1  0  0  0
  7  5  1  0  0  0  0
M  END
