2,5,8
q = -3.0, confidence = 0.41

 32 32  0  0  1  0  0  0  0  0999 V2000
   -0.4386   -1.9074    0.1929 N   0  0  0  0  0  0  0  0  0  0  0  0
    0.3868    0.5209   -0.4376 O   0  0  0  0  0  1  0  0  0  0  0  0
    1.0064   -1.6673    0.2550 C   0  0  0  0  0  0  0  0  0  0  0  0
    1.3449   -0.4664   -0.6533 C   0  0  2  0  0  0  0  0  0  0  0  0
   -2.3521   -0.7655   -1.2532 O   0  0  0  0  0  1  0  0  0  0  0  0
   -0.8760   -2.6242   -1.0129 C   0  0  0  0  0  0  0  0  0  0  0  0
   -2.2904   -2.1527   -1.3554 C   0  0  0  0  0  0  0  0  0  0  0  0
   -1.6975   -0.1662    1.7570 O   0  0  0  0  0  1  0  0  0  0  0  0
   -1.0082   -2.4287    1.4438 C   0  0  0  0  0  0  0  0  0  0  0  0
   -1.1472   -1.2597    2.4206 C   0  0  0  0  0  0  0  0  0  0  0  0
    2.7565    0.0270   -0.3733 C   0  0  0  0  0  0  0  0  0  0  0  0
    3.8723   -0.6608   -0.8870 C   0  0  0  0  0  0  0  0  0  0  0  0
    5.1737   -0.2364   -0.5796 C   0  0  0  0  0  0  0  0  0  0  0  0
    5.3717    0.8861    0.2410 C   0  0  0  0  0  0  0  0  0  0  0  0
    4.2618    1.5799    0.7494 C   0  0  0  0  0  0  0  0  0  0  0  0
    2.9606    1.1519    0.4454 C   0  0  0  0  0  0  0  0  0  0  0  0
    6.3921    1.2240    0.4776 H   0  0  0  0  0  0  0  0  0  0  0  0
   -0.8090   -3.7315   -0.8888 H   0  0  0  0  0  0  0  0  0  0  0  0
   -0.4020   -3.2679    1.8609 H   0  0  0  0  0  0  0  0  0  0  0  0
    1.2711   -1.3875    1.2937 H   0  0  0  0  0  0  0  0  0  0  0  0
   -0.1507   -0.9956    2.8560 H   0  0  0  0  0  0  0  0  0  0  0  0
   -1.7883   -1.5667    3.2814 H   0  0  0  0  0  0  0  0  0  0  0  0
   -2.5559   -2.4873   -2.3869 H   0  0  0  0  0  0  0  0  0  0  0  0
   -2.0183   -2.8244    1.2166 H   0  0  0  0  0  0  0  0  0  0  0  0
    1.3109   -0.8013   -1.7217 H   0  0  0  0  0  0  0  0  0  0  0  0
    3.7206   -1.5333   -1.5438 H   0  0  0  0  0  0  0  0  0  0  0  0
    4.4115    2.4657    1.3861 H   0  0  0  0  0  0  0  0  0  0  0  0
    1.5958   -2.5762   -0.0092 H   0  0  0  0  0  0  0  0  0  0  0  0
    2.0776    1.6877    0.8236 H   0  0  0  0  0  0  0  0  0  0  0  0
    6.0389   -0.7795   -0.9899 H   0  0  0  0  0  0  0  0  0  0  0  0
   -3.0372   -2.6334   -0.6743 H   0  0  0  0  0  0  0  0  0  0  0  0
   -0.1963   -2.3379   -1.8403 H   0  0  0  0  0  0  0  0  0  0  0  0
  1  3  1  0  0  0  0
  1  9  1  0  0  0  0
  3 20  1  0  0  0  0
  4 25  1  6  0  0  0
  4  2  1  0  0  0  0
  4 11  1  0  0  0  0
  4  3  1  0  0  0  0
  6 18  1  0  0  0  0
  6  1  1  0  0  0  0
  7  5  1  0  0  0  0
  7  6  1  0  0  0  0
  7 31  1  0  0  0  0
  8 10  1  0  0  0  0
  9 19  1  0  0  0  0
  9 10  1  0  0  0  0
 10 21  1  0  0  0  0
 10 22  1  0  0  0  0
 11 16  1  0  0  0  0
 12 13  1  0  0  0  0
 12 11  2  0  0  0  0
 13 14  2  0  0  0  0
 14 17  1  0  0  0  0
 14 15  1  0  0  0  0
 15 27  1  0  0  0  0
 16 15  2  0  0  0  0
 16 29  1  0  0  0  0
 23  7  1  0  0  0  0
 24  9  1  0  0  0  0
 26 12  1  0  0  0  0
 28  3  1  0  0  0  0
 30 13  1  0  0  0  0
 32  6  1  0  0  0  0
M  END
