1,2,3
q = -3.0

 22 21  0  0  0  0  0  0  0  0999 V2000
   -0.6252   -0.5746    1.7250 O   0  0  0  0  0  1  0  0  0  0  0  0
   -0.5866   -1.2471   -1.3251 O   0  0  0  0  0  1  0  0  0  0  0  0
   -0.5720    1.7815   -0.3723 O   0  0  0  0  0  1  0  0  0  0  0  0
   -2.5415    0.0184   -0.0229 N   0  0  0  0  0  0  0  0  0  0  0  0
   -1.9076   -0.4990    2.2614 C   0  0  0  0  0  0  0  0  0  0  0  0
   -2.9333   -0.7636    1.1576 C   0  0  0  0  0  0  0  0  0  0  0  0
   -1.8709   -1.7244   -1.5731 C   0  0  0  0  0  0  0  0  0  0  0  0
   -2.8885   -0.6149   -1.3021 C   0  0  0  0  0  0  0  0  0  0  0  0
   -1.8426    2.2408   -0.7097 C   0  0  0  0  0  0  0  0  0  0  0  0
   -2.8964    1.4416    0.0593 C   0  0  0  0  0  0  0  0  0  0  0  0
   -2.0873    0.5035    2.7264 H   0  0  0  0  0  0  0  0  0  0  0  0
   -2.0422   -1.2454    3.0808 H   0  0  0  0  0  0  0  0  0  0  0  0
   -2.8875   -1.8365    0.8839 H   0  0  0  0  0  0  0  0  0  0  0  0
   -3.9791   -0.5410    1.4788 H   0  0  0  0  0  0  0  0  0  0  0  0
   -2.0929   -2.6186   -0.9367 H   0  0  0  0  0  0  0  0  0  0  0  0
   -1.9713   -2.0689   -2.6307 H   0  0  0  0  0  0  0  0  0  0  0  0
   -2.7936    0.1531   -2.0959 H   0  0  0  0  0  0  0  0  0  0  0  0
   -3.9420   -0.9853   -1.3144 H   0  0  0  0  0  0  0  0  0  0  0  0
   -2.0176    2.1538   -1.8122 H   0  0  0  0  0  0  0  0  0  0  0  0
   -1.9519    3.3255   -0.4677 H   0  0  0  0  0  0  0  0  0  0  0  0
   -2.8561    1.7385    1.1265 H   0  0  0  0  0  0  0  0  0  0  0  0
   -3.9337    1.6363   -0.3053 H   0  0  0  0  0  0  0  0  0  0  0  0
  1  5  1  0  0  0  0
  4 10  1  0  0  0  0
  4  6  1  0  0  0  0
  5 11  1  0  0  0  0
  5 12  1  0  0  0  0
  6 14  1  0  0  0  0
  6  5  1  0  0  0  0
  7  2  1  0  0  0  0
  7  8  1  0  0  0  0
  7 15  1  0  0  0  0
  8  4  1  0  0  0  0
  9 20  1  0  0  0  0
  9  3  1  0  0  0  0
  9 10  1  0  0  0  0
 10 21  1  0  0  0  0
 13  6  1  0  0  0  0
 16  7  1  0  0  0  0
 17  8  1  0  0  0  0
 18  8  1  0  0  0  0
 19  9  1  0  0  0  0
 22 10  1  0  0  0  0
M  END
