1,2,3
q = -1.0

 18 18  0  0  1  0  0  0  0  0999 V2000
    1.3696    1.5629   -0.8888 O   0  0  0  0  0  1  0  0  0  0  0  0
   -0.0026    1.0781    1.4137 O   0  0  0  0  0  1  0  0  0  0  0  0
   -1.3674    1.5629   -0.8932 O   0  0  0  0  0  1  0  0  0  0  0  0
    1.2730    2.9460   -0.5444 C   0  0  2  0  0  0  0  0  0  0  0  0
    1.2641    3.1108    0.9872 C   0  0  0  0  0  0  0  0  0  0  0  0
   -0.0029    2.4927    1.6083 C   0  0  1  0  0  0  0  0  0  0  0  0
   -1.2678    3.1108    0.9832 C   0  0  0  0  0  0  0  0  0  0  0  0
   -1.2718    2.9460   -0.5485 C   0  0  1  0  0  0  0  0  0  0  0  0
    0.0016    3.5577   -1.1628 C   0  0  0  0  0  0  0  0  0  0  0  0
    2.1690    3.4544   -0.9653 H   0  0  0  0  0  0  0  0  0  0  0  0
    1.3070    4.1914    1.2393 H   0  0  0  0  0  0  0  0  0  0  0  0
    2.1657    2.6305    1.4190 H   0  0  0  0  0  0  0  0  0  0  0  0
   -0.0046    2.6768    2.7060 H   0  0  0  0  0  0  0  0  0  0  0  0
   -1.3116    4.1913    1.2351 H   0  0  0  0  0  0  0  0  0  0  0  0
   -2.1708    2.6304    1.4120 H   0  0  0  0  0  0  0  0  0  0  0  0
   -2.1664    3.4544   -0.9723 H   0  0  0  0  0  0  0  0  0  0  0  0
    0.0034    3.3905   -2.2589 H   0  0  0  0  0  0  0  0  0  0  0  0
    0.0013    4.6545   -0.9891 H   0  0  0  0  0  0  0  0  0  0  0  0
  1  4  1  0  0  0  0
  2  6  1  0  0  0  0
  3  8  1  0  0  0  0
  4 10  1  6  0  0  0
  4  5  1  0  0  0  0
  5 11  1  0  0  0  0
  5 12  1  0  0  0  0
  5  6  1  0  0  0  0
  6 13  1  1  0  0  0
  7 14  1  0  0  0  0
  7 15  1  0  0  0  0
  7  6  1  0  0  0  0
  8 16  1  6  0  0  0
  8  7  1  0  0  0  0
  9 18  1  0  0  0  0
  9  8  1  0  0  0  0
  9  4  1  0  0  0  0
 17  9  1  0  0  0  0
M  END
