1,2,3
q = -1.0, confidence = 0.204

 34 36  0  0  0  0  0  0  0  0999 V2000
    0.8006   -1.8778    0.0613 O   0  5  0  0  0  0  0  0  0  0  0  0
    0.8593    1.9270   -0.1593 O   0  5  0  0  0  0  0  0  0  0  0  0
    0.6753    0.1489    2.0050 O   0  5  0  0  0  0  0  0  0  0  0  0
   -1.0449    0.0150   -0.0885 N   0  0  0  0  0  0  0  0  0  0  0  0
   -0.3177   -2.2277   -0.6004 C   0  0  0  0  0  0  0  0  0  0  0  0
   -0.4922   -3.5202   -1.1227 C   0  0  0  0  0  0  0  0  0  0  0  0
   -1.6380   -3.8148   -1.8772 C   0  0  0  0  0  0  0  0  0  0  0  0
   -2.6002   -2.8251   -2.1220 C   0  0  0  0  0  0  0  0  0  0  0  0
   -2.4409   -1.5332   -1.5849 C   0  0  0  0  0  0  0  0  0  0  0  0
   -1.3131   -1.2373   -0.8164 C   0  0  0  0  0  0  0  0  0  0  0  0
   -1.3834    1.3124   -0.6914 C   0  0  0  0  0  0  0  0  0  0  0  0
   -2.6565    1.6929   -1.1357 C   0  0  0  0  0  0  0  0  0  0  0  0
   -2.8749    2.9894   -1.6317 C   0  0  0  0  0  0  0  0  0  0  0  0
   -1.8228    3.9183   -1.6553 C   0  0  0  0  0  0  0  0  0  0  0  0
   -0.5570    3.5654   -1.1722 C   0  0  0  0  0  0  0  0  0  0  0  0
   -0.3317    2.2674   -0.6719 C   0  0  0  0  0  0  0  0  0  0  0  0
   -1.5751   -0.0851    1.2879 C   0  0  0  0  0  0  0  0  0  0  0  0
   -2.9287   -0.2783    1.5796 C   0  0  0  0  0  0  0  0  0  0  0  0
   -3.3508   -0.3336    2.9182 C   0  0  0  0  0  0  0  0  0  0  0  0
   -2.4085   -0.2004    3.9526 C   0  0  0  0  0  0  0  0  0  0  0  0
   -1.0489   -0.0278    3.6631 C   0  0  0  0  0  0  0  0  0  0  0  0
   -0.6157    0.0221    2.3195 C   0  0  0  0  0  0  0  0  0  0  0  0
    0.2981   -4.2652   -0.9538 H   0  0  0  0  0  0  0  0  0  0  0  0
   -1.7681   -4.8244   -2.2953 H   0  0  0  0  0  0  0  0  0  0  0  0
   -3.4853   -3.0495   -2.7346 H   0  0  0  0  0  0  0  0  0  0  0  0
   -3.1969   -0.7676   -1.7931 H   0  0  0  0  0  0  0  0  0  0  0  0
   -3.5007    0.9953   -1.0808 H   0  0  0  0  0  0  0  0  0  0  0  0
   -3.8752    3.2711   -1.9907 H   0  0  0  0  0  0  0  0  0  0  0  0
   -1.9927    4.9331   -2.0457 H   0  0  0  0  0  0  0  0  0  0  0  0
    0.2809    4.2767   -1.1674 H   0  0  0  0  0  0  0  0  0  0  0  0
   -3.6552   -0.4026    0.7646 H   0  0  0  0  0  0  0  0  0  0  0  0
   -4.4147   -0.4867    3.1499 H   0  0  0  0  0  0  0  0  0  0  0  0
   -2.7371   -0.2431    5.0021 H   0  0  0  0  0  0  0  0  0  0  0  0
   -0.2952    0.0601    4.4586 H   0  0  0  0  0  0  0  0  0  0  0  0
  3 22  1  0  0  0  0
  4 17  1  0  0  0  0
  5  1  1  0  0  0  0
  6 23  1  0  0  0  0
  6  5  2  0  0  0  0
  7  6  1  0  0  0  0
  8  7  2  0  0  0  0
  8  9  1  0  0  0  0
  9 10  2  0  0  0  0
 10  5  1  0  0  0  0
 10  4  1  0  0  0  0
 11 16  1  0  0  0  0
 11  4  1  0  0  0  0
 12 27  1  0  0  0  0
 12 11  2  0  0  0  0
 13 12  1  0  0  0  0
 14 13  2  0  0  0  0
 14 15  1  0  0  0  0
 15 30  1  0  0  0  0
 15 16  2  0  0  0  0
 16  2  1  0  0  0  0
 17 18  2  0  0  0  0
 17 22  1  0  0  0  0
 18 19  1  0  0  0  0
 19 32  1  0  0  0  0
 19 20  2  0  0  0  0
 20 33  1  0  0  0  0
 21 20  1  0  0  0  0
 21 34  1  0  0  0  0
 22 21  2  0  0  0  0
 24  7  1  0  0  0  0
 25  8  1  0  0  0  0
 26  9  1  0  0  0  0
 28 13  1  0  0  0  0
 29 14  1  0  0  0  0
 31 18  1  0  0  0  0
M  CHG  3   1  -1   2  -1   3  -1
M  END
