1,3,5
q = -1.0, confidence = 0.094

 14 13  0  0  0  0  0  0  0  0999 V2000
    0.3758    1.2427   -1.2759 O   0  5  0  0  0  0  0  0  0  0  0  0
   -0.4413    2.7393   -2.7588 O   0  0  0  0  0  0  0  0  0  0  0  0
   -1.2884   -0.9063   -1.5092 O   0  0  0  0  0  1  0  0  0  0  0  0
   -3.4281   -2.1782    1.5071 O   0  5  0  0  0  0  0  0  0  0  0  0
   -1.3109   -1.4648    1.1505 O   0  0  0  0  0  0  0  0  0  0  0  0
   -1.9325    0.1125   -0.8069 N   0  0  0  0  0  0  0  0  0  0  0  0
   -0.5883    1.8461   -1.9380 C   0  0  0  0  0  0  0  0  0  0  0  0
   -2.0093    1.3592   -1.5640 C   0  0  0  0  0  0  0  0  0  0  0  0
   -3.0799   -0.3625   -0.0404 C   0  0  0  0  0  0  0  0  0  0  0  0
   -2.6194   -1.4510    0.9564 C   0  0  0  0  0  0  0  0  0  0  0  0
   -2.6228    1.2383   -2.4818 H   0  0  0  0  0  0  0  0  0  0  0  0
   -2.4751    2.1288   -0.9153 H   0  0  0  0  0  0  0  0  0  0  0  0
   -3.4860    0.4909    0.5407 H   0  0  0  0  0  0  0  0  0  0  0  0
   -3.8761   -0.7647   -0.7019 H   0  0  0  0  0  0  0  0  0  0  0  0
  2  7  2  0  0  0  0
  3  6  1  0  0  0  0
  6  9  1  0  0  0  0
  7  8  1  0  0  0  0
  7  1  1  0  0  0  0
  8 12  1  0  0  0  0
  8  6  1  0  0  0  0
  9 13  1  0  0  0  0
  9 10  1  0  0  0  0
 10  5  2  0  0  0  0
 10  4  1  0  0  0  0
 11  8  1  0  0  0  0
 14  9  1  0  0  0  0
M  CHG  2   1  -1   4  -1
M  END
