2,3,4
q = -3.0, confidence = 0.358

 34 33  0  0  0  0  0  0  0  0999 V2000
   -2.1919    0.0081    0.7926 N   0  0  0  0  0  0  0  0  0  0  0  0
   -0.5435   -1.2999   -0.8527 O   0  0  0  0  0  1  0  0  0  0  0  0
   -0.3834    1.7532   -0.1527 O   0  0  0  0  0  1  0  0  0  0  0  0
    0.1857   -0.2395    2.0665 O   0  0  0  0  0  1  0  0  0  0  0  0
   -1.7059    2.0817   -0.5230 C   0  0  0  0  0  0  0  0  0  0  0  0
   -1.7014   -2.0444   -0.5371 C   0  0  0  0  0  0  0  0  0  0  0  0
   -0.8875    0.2108    2.8409 C   0  0  0  0  0  0  0  0  0  0  0  0
   -0.8979    1.3286    2.8925 H   0  0  0  0  0  0  0  0  0  0  0  0
   -0.7948   -0.1545    3.8918 H   0  0  0  0  0  0  0  0  0  0  0  0
   -2.6384    1.3771    0.4978 C   0  0  0  0  0  0  0  0  0  0  0  0
   -2.5797    1.9593    1.4390 H   0  0  0  0  0  0  0  0  0  0  0  0
   -3.7030    1.3969    0.1684 H   0  0  0  0  0  0  0  0  0  0  0  0
   -1.9512    1.6395   -1.9772 C   0  0  0  0  0  0  0  0  0  0  0  0
   -1.2838    2.2143   -2.6499 H   0  0  0  0  0  0  0  0  0  0  0  0
   -3.0000    1.8183   -2.2914 H   0  0  0  0  0  0  0  0  0  0  0  0
   -1.7068    0.5675   -2.1055 H   0  0  0  0  0  0  0  0  0  0  0  0
   -1.8881    3.6022   -0.4006 C   0  0  0  0  0  0  0  0  0  0  0  0
   -1.6230    3.9370    0.6221 H   0  0  0  0  0  0  0  0  0  0  0  0
   -2.9343    3.9034   -0.6143 H   0  0  0  0  0  0  0  0  0  0  0  0
   -1.2227    4.1219   -1.1173 H   0  0  0  0  0  0  0  0  0  0  0  0
   -2.7819   -1.0353   -0.0545 C   0  0  0  0  0  0  0  0  0  0  0  0
   -3.2087   -0.5468   -0.9505 H   0  0  0  0  0  0  0  0  0  0  0  0
   -3.6226   -1.5545    0.4613 H   0  0  0  0  0  0  0  0  0  0  0  0
   -1.3435   -3.0982    0.5287 C   0  0  0  0  0  0  0  0  0  0  0  0
   -0.6289   -3.8281    0.0996 H   0  0  0  0  0  0  0  0  0  0  0  0
   -2.2385   -3.6526    0.8783 H   0  0  0  0  0  0  0  0  0  0  0  0
   -0.8463   -2.6218    1.3958 H   0  0  0  0  0  0  0  0  0  0  0  0
   -2.1959   -0.2958    2.2334 C   0  0  0  0  0  0  0  0  0  0  0  0
   -2.2455   -1.3935    2.3577 H   0  0  0  0  0  0  0  0  0  0  0  0
   -3.0891    0.1357    2.7452 H   0  0  0  0  0  0  0  0  0  0  0  0
   -2.2027   -2.7418   -1.8111 C   0  0  0  0  0  0  0  0  0  0  0  0
   -2.3869   -1.9971   -2.6112 H   0  0  0  0  0  0  0  0  0  0  0  0
   -3.1435   -3.2994   -1.6240 H   0  0  0  0  0  0  0  0  0  0  0  0
   -1.4404   -3.4578   -2.1759 H   0  0  0  0  0  0  0  0  0  0  0  0
  1 28  1  0  0  0  0
  2  6  1  0  0  0  0
  4  7  1  0  0  0  0
  5 17  1  0  0  0  0
  5  3  1  0  0  0  0
  5 10  1  0  0  0  0
  6 21  1  0  0  0  0
  6 24  1  0  0  0  0
  7  8  1  0  0  0  0
  7  9  1  0  0  0  0
 10  1  1  0  0  0  0
 10 11  1  0  0  0  0
 12 10  1  0  0  0  0
 13  5  1  0  0  0  0
 14 13  1  0  0  0  0
 15 13  1  0  0  0  0
 16 13  1  0  0  0  0
 17 18  1  0  0  0  0
 19 17  1  0  0  0  0
 20 17  1  0  0  0  0
 21 23  1  0  0  0  0
 21  1  1  0  0  0  0
 22 21  1  0  0  0  0
 24 26  1  0  0  0  0
 24 27  1  0  0  0  0
 25 24  1  0  0  0  0
 28 29  1  0  0  0  0
 28 30  1  0  0  0  0
 28  7  1  0  0  0  0
 31 33  1  0  0  0  0
 31  6  1  0  0  0  0
 32 31  1  0  0  0  0
 34 31  1  0  0  0  0
M  END
