3,4,5
q = -3.0, confidence = 0.47

 16 15  0  0  1  0  0  0  0  0999 V2000
    1.2626    1.6144    1.4706 P   0  0  2  0  0  0  0  0  0  0  0  0
    2.7851    1.0061    1.7242 O   0  0  0  0  0  0  0  0  0  0  0  0
    2.2050    0.2505   -1.0436 O   0  0  0  0  0  1  0  0  0  0  0  0
    1.8901   -1.8474    0.3708 O   0  0  0  0  0  1  0  0  0  0  0  0
    0.3567    0.3842    1.0844 O   0  0  0  0  0  1  0  0  0  0  0  0
    1.2462    2.8433    0.5981 O   0  0  0  0  0  0  0  0  0  0  0  0
    0.8104    1.8855    3.0206 O   0  0  0  0  0  0  0  0  0  0  0  0
    1.0828    2.7959    3.2448 H   0  0  0  0  0  0  0  0  0  0  0  0
    3.7235    0.9885    0.6518 C   0  0  0  0  0  0  0  0  0  0  0  0
    4.7232    0.8219    1.1067 H   0  0  0  0  0  0  0  0  0  0  0  0
    3.7241    1.9693    0.1266 H   0  0  0  0  0  0  0  0  0  0  0  0
    3.4256   -0.1049   -0.3787 C   0  0  1  0  0  0  0  0  0  0  0  0
    4.2471   -0.0749   -1.1325 H   0  0  0  0  0  0  0  0  0  0  0  0
    3.2724   -1.5314    0.1824 C   0  0  0  0  0  0  0  0  0  0  0  0
    3.7105   -2.2661   -0.5321 H   0  0  0  0  0  0  0  0  0  0  0  0
    3.7972   -1.6468    1.1563 H   0  0  0  0  0  0  0  0  0  0  0  0
  1  6  2  6  0  0  0
  1  2  1  0  0  0  0
  1  7  1  0  0  0  0
  3 12  1  0  0  0  0
  5  1  1  0  0  0  0
  7  8  1  0  0  0  0
  9 10  1  0  0  0  0
  9  2  1  0  0  0  0
 11  9  1  0  0  0  0
 12 13  1  6  0  0  0
 12 14  1  0  0  0  0
 12  9  1  0  0  0  0
 14  4  1  0  0  0  0
 14 16  1  0  0  0  0
 15 14  1  0  0  0  0
M  END
