2,4,6
q = -1.0, confidence = 0.378

 20 19  0  0  0  0  0  0  0  0999 V2000
    2.3381    0.4142   -0.3181 N   0  0  0  0  0  0  0  0  0  0  0  0
    1.1969   -1.7703    0.8840 O   0  5  0  0  0  0  0  0  0  0  0  0
    3.0736   -2.2655    2.0403 O   0  0  0  0  0  0  0  0  0  0  0  0
    0.0328    1.5011   -1.1690 O   0  5  0  0  0  0  0  0  0  0  0  0
    0.9715    3.5250   -1.5320 O   0  0  0  0  0  0  0  0  0  0  0  0
    0.9604   -1.3661   -1.8607 O   0  0  0  0  0  1  0  0  0  0  0  0
    2.4186   -1.5345    1.3053 C   0  0  0  0  0  0  0  0  0  0  0  0
    2.9879   -0.1677    0.8696 C   0  0  0  0  0  0  0  0  0  0  0  0
    1.0080    2.3845   -1.0890 C   0  0  0  0  0  0  0  0  0  0  0  0
    2.2355    1.8818   -0.2968 C   0  0  0  0  0  0  0  0  0  0  0  0
    2.3435   -1.4424   -1.9380 C   0  0  0  0  0  0  0  0  0  0  0  0
    2.9208   -0.0682   -1.5892 C   0  0  0  0  0  0  0  0  0  0  0  0
    4.0909   -0.2528    0.7476 H   0  0  0  0  0  0  0  0  0  0  0  0
    2.7837    0.5021    1.7276 H   0  0  0  0  0  0  0  0  0  0  0  0
    2.0785    2.2115    0.7507 H   0  0  0  0  0  0  0  0  0  0  0  0
    3.1512    2.3844   -0.6805 H   0  0  0  0  0  0  0  0  0  0  0  0
    2.7518   -2.2201   -1.2427 H   0  0  0  0  0  0  0  0  0  0  0  0
    2.6870   -1.7271   -2.9643 H   0  0  0  0  0  0  0  0  0  0  0  0
    2.6150    0.6415   -2.3846 H   0  0  0  0  0  0  0  0  0  0  0  0
    4.0371   -0.0683   -1.5395 H   0  0  0  0  0  0  0  0  0  0  0  0
  1 10  1  0  0  0  0
  1  8  1  0  0  0  0
  2  7  1  0  0  0  0
  4  9  1  0  0  0  0
  5  9  2  0  0  0  0
  7  3  2  0  0  0  0
  8  7  1  0  0  0  0
  8 14  1  0  0  0  0
  9 10  1  0  0  0  0
 10 15  1  0  0  0  0
 11  6  1  0  0  0  0
 11 12  1  0  0  0  0
 11 17  1  0  0  0  0
 12 20  1  0  0  0  0
 12  1  1  0  0  0  0
 13  8  1  0  0  0  0
 16 10  1  0  0  0  0
 18 11  1  0  0  0  0
 19 12  1  0  0  0  0
M  CHG  2   2  -1   4  -1
M  END
