1
q = -1.0, confidence = 0.068

 35 40  0  0  1  0  0  0  0  0999 V2000
   -1.1210   -0.5279   -1.5417 Si  0  0  0  0  0  3  0  0  0  0  0  0
   -2.9570   -1.0248    1.0473 C   0  0  2  0  0  0  0  0  0  0  0  0
   -2.7913   -0.3483   -0.4850 C   0  0  0  0  0  0  0  0  0  0  0  0
   -1.7887   -1.7846    1.6394 C   0  0  0  0  0  0  0  0  0  0  0  0
   -1.8590   -2.8623    1.4098 H   0  0  0  0  0  0  0  0  0  0  0  0
   -1.7835   -1.6528    2.7365 H   0  0  0  0  0  0  0  0  0  0  0  0
   -0.8302   -1.3937    1.2278 H   0  0  0  0  0  0  0  0  0  0  0  0
   -1.3075   -2.2226   -2.3935 C   0  0  0  0  0  0  0  0  0  0  0  0
   -2.2875   -2.2918   -2.9082 H   0  0  0  0  0  0  0  0  0  0  0  0
   -1.2236   -3.0823   -1.7023 H   0  0  0  0  0  0  0  0  0  0  0  0
   -0.5132   -2.3199   -3.1612 H   0  0  0  0  0  0  0  0  0  0  0  0
   -1.3607    0.6757   -3.0018 C   0  0  0  0  0  0  0  0  0  0  0  0
   -0.5046    0.5437   -3.6954 H   0  0  0  0  0  0  0  0  0  0  0  0
   -1.3959    1.7389   -2.7030 H   0  0  0  0  0  0  0  0  0  0  0  0
   -2.2934    0.4434   -3.5548 H   0  0  0  0  0  0  0  0  0  0  0  0
   -3.7979   -1.7312   -0.2672 B   0  0  2  0  0  0  0  0  0  0  0  0
   -3.4171   -2.7992   -0.6661 H   0  0  0  0  0  0  0  0  0  0  0  0
   -4.5610   -1.5426    1.3251 B   0  0  2  0  0  0  0  0  0  0  0  0
   -4.7041   -2.5330    2.0004 H   0  0  0  0  0  0  0  0  0  0  0  0
   -3.9464   -0.0461    2.0503 B   0  0  0  0  0  0  0  0  0  0  0  0
   -3.6624   -0.0111    3.2234 H   0  0  0  0  0  0  0  0  0  0  0  0
   -2.7978    0.6664    0.9030 B   0  0  1  0  0  0  0  0  0  0  0  0
   -1.7531    1.1414    1.2584 H   0  0  0  0  0  0  0  0  0  0  0  0
   -4.3051   -0.3813   -1.2877 B   0  0  1  0  0  0  0  0  0  0  0  0
   -4.3030   -0.5352   -2.4849 H   0  0  0  0  0  0  0  0  0  0  0  0
   -5.4613   -1.1186   -0.1504 B   0  0  1  0  0  0  0  0  0  0  0  0
   -6.3810   -1.7985   -0.5417 H   0  0  0  0  0  0  0  0  0  0  0  0
   -5.5534   -0.0621    1.2910 B   0  0  0  0  0  0  0  0  0  0  0  0
   -6.5541    0.0257    1.9646 H   0  0  0  0  0  0  0  0  0  0  0  0
   -4.4447    1.3206    1.0340 B   0  0  0  0  0  0  0  0  0  0  0  0
   -4.6190    2.4221    1.5037 H   0  0  0  0  0  0  0  0  0  0  0  0
   -3.6885    1.1100   -0.5612 B   0  0  2  0  0  0  0  0  0  0  0  0
   -3.2702    2.0022   -1.2537 H   0  0  0  0  0  0  0  0  0  0  0  0
   -5.3947    0.6594   -0.3317 B   0  0  1  0  0  0  0  0  0  0  0  0
   -6.2765    1.2897   -0.8683 H   0  0  0  0  0  0  0  0  0  0  0  0
  1  3  1  0  0  0  0
  2 18  1  0  0  0  0
  2  4  1  1  0  0  0
  3 22  1  0  0  0  0
  3  2  1  0  0  0  0
  4  6  1  0  0  0  0
  5  4  1  0  0  0  0
  7  4  1  0  0  0  0
  8 10  1  0  0  0  0
  8  1  1  0  0  0  0
  9  8  1  0  0  0  0
 11  8  1  0  0  0  0
 12 14  1  0  0  0  0
 12  1  1  0  0  0  0
 13 12  1  0  0  0  0
 15 12  1  0  0  0  0
 16 17  1  6  0  0  0
 16 26  1  0  0  0  0
 16 18  1  0  0  0  0
 18 19  1  1  0  0  0
 18 20  1  0  0  0  0
 20 21  1  0  0  0  0
 22  2  1  0  0  0  0
 22 23  1  1  0  0  0
 24 25  1  6  0  0  0
 24 32  1  0  0  0  0
 24  3  1  0  0  0  0
 24 16  1  0  0  0  0
 26 27  1  6  0  0  0
 26 28  1  0  0  0  0
 28 29  1  0  0  0  0
 30 31  1  0  0  0  0
 30 20  1  0  0  0  0
 32 33  1  6  0  0  0
 32  3  1  0  0  0  0
 32 22  1  0  0  0  0
 34 35  1  6  0  0  0
 34 26  1  0  0  0  0
 34 30  1  0  0  0  0
 34 28  1  0  0  0  0
M  ZBO  1   1   0
M  END
