1
q = nan, confidence = 0.0

 41 42  0  0  0  0  0  0  0  0999 V2000
    0.5475   -0.0121   -0.0139 Si  0  0  0  0  0  2  0  0  0  0  0  0
    1.6649    1.5547    0.1084 C   0  0  0  0  0  0  0  0  0  0  0  0
    2.5391    1.8672   -0.9784 C   0  0  0  0  0  0  0  0  0  0  0  0
    3.3189    3.0339   -0.9370 C   0  0  0  0  0  0  0  0  0  0  0  0
    3.2841    3.9191    0.1578 C   0  0  0  0  0  0  0  0  0  0  0  0
    2.4370    3.5961    1.2273 C   0  0  0  0  0  0  0  0  0  0  0  0
    1.6334    2.4369    1.2237 C   0  0  0  0  0  0  0  0  0  0  0  0
    2.6488    0.9669   -2.1848 C   0  0  0  0  0  0  0  0  0  0  0  0
    4.1325    5.1651    0.1680 C   0  0  0  0  0  0  0  0  0  0  0  0
    0.7995    2.1466    2.4450 C   0  0  0  0  0  0  0  0  0  0  0  0
    1.7764   -1.4790   -0.1099 C   0  0  0  0  0  0  0  0  0  0  0  0
    1.8650   -2.3328   -1.2433 C   0  0  0  0  0  0  0  0  0  0  0  0
    2.7502   -3.4311   -1.2189 C   0  0  0  0  0  0  0  0  0  0  0  0
    3.5577   -3.7180   -0.1101 C   0  0  0  0  0  0  0  0  0  0  0  0
    3.4789   -2.8521    0.9984 C   0  0  0  0  0  0  0  0  0  0  0  0
    2.6184   -1.7451    1.0128 C   0  0  0  0  0  0  0  0  0  0  0  0
    1.0914   -2.0995   -2.5211 C   0  0  0  0  0  0  0  0  0  0  0  0
    4.4720   -4.9163   -0.0871 C   0  0  0  0  0  0  0  0  0  0  0  0
    2.6030   -0.8464    2.2261 C   0  0  0  0  0  0  0  0  0  0  0  0
    3.9743    3.2640   -1.7937 H   0  0  0  0  0  0  0  0  0  0  0  0
    2.3946    4.2677    2.1010 H   0  0  0  0  0  0  0  0  0  0  0  0
    3.2232    0.0476   -1.9473 H   0  0  0  0  0  0  0  0  0  0  0  0
    1.6541    0.6318   -2.5418 H   0  0  0  0  0  0  0  0  0  0  0  0
    3.1523    1.4795   -3.0273 H   0  0  0  0  0  0  0  0  0  0  0  0
    3.9727    5.7623    1.0865 H   0  0  0  0  0  0  0  0  0  0  0  0
    5.2128    4.9160    0.1082 H   0  0  0  0  0  0  0  0  0  0  0  0
    3.9073    5.8137   -0.7044 H   0  0  0  0  0  0  0  0  0  0  0  0
    0.3888    3.0736    2.8909 H   0  0  0  0  0  0  0  0  0  0  0  0
   -0.0406    1.4670    2.2102 H   0  0  0  0  0  0  0  0  0  0  0  0
    1.4096    1.6545    3.2322 H   0  0  0  0  0  0  0  0  0  0  0  0
    2.8058   -4.0847   -2.1056 H   0  0  0  0  0  0  0  0  0  0  0  0
    4.1070   -3.0502    1.8830 H   0  0  0  0  0  0  0  0  0  0  0  0
    1.7850   -1.8894   -3.3624 H   0  0  0  0  0  0  0  0  0  0  0  0
    0.4956   -2.9924   -2.7947 H   0  0  0  0  0  0  0  0  0  0  0  0
    0.3887   -1.2489   -2.4373 H   0  0  0  0  0  0  0  0  0  0  0  0
    4.1070   -5.6820    0.6304 H   0  0  0  0  0  0  0  0  0  0  0  0
    4.5427   -5.3973   -1.0819 H   0  0  0  0  0  0  0  0  0  0  0  0
    5.4966   -4.6393    0.2360 H   0  0  0  0  0  0  0  0  0  0  0  0
    1.5675   -0.5848    2.5300 H   0  0  0  0  0  0  0  0  0  0  0  0
    3.0895   -1.3290    3.0959 H   0  0  0  0  0  0  0  0  0  0  0  0
    3.1291    0.1097    2.0234 H   0  0  0  0  0  0  0  0  0  0  0  0
  1  2  1  0  0  0  0
  2  7  1  0  0  0  0
  3  4  1  0  0  0  0
  3  2  2  0  0  0  0
  4  5  2  0  0  0  0
  5  9  1  0  0  0  0
  5  6  1  0  0  0  0
  6 21  1  0  0  0  0
  7  6  2  0  0  0  0
  7 10  1  0  0  0  0
  8 22  1  0  0  0  0
  8  3  1  0  0  0  0
  9 25  1  0  0  0  0
 10 28  1  0  0  0  0
 10 30  1  0  0  0  0
 11  1  1  0  0  0  0
 11 16  1  0  0  0  0
 12 13  1  0  0  0  0
 12 11  2  0  0  0  0
 13 14  2  0  0  0  0
 14 18  1  0  0  0  0
 14 15  1  0  0  0  0
 15 16  2  0  0  0  0
 15 32  1  0  0  0  0
 16 19  1  0  0  0  0
 17 35  1  0  0  0  0
 17 12  1  0  0  0  0
 18 38  1  0  0  0  0
 18 36  1  0  0  0  0
 19 39  1  0  0  0  0
 19 40  1  0  0  0  0
 20  4  1  0  0  0  0
 23  8  1  0  0  0  0
 24  8  1  0  0  0  0
 26  9  1  0  0  0  0
 27  9  1  0  0  0  0
 29 10  1  0  0  0  0
 31 13  1  0  0  0  0
 33 17  1  0  0  0  0
 34 17  1  0  0  0  0
 37 18  1  0  0  0  0
 41 19  1  0  0  0  0
M  END
