1
q = -1.0, confidence = 0.0

 24 25  0  0  0  0  0  0  0  0999 V2000
    2.1549    0.5238   -0.9756 Si  0  0  0  0  0  3  0  0  0  0  0  0
    2.8501   -1.1083   -1.6687 C   0  0  0  0  0  0  0  0  0  0  0  0
    2.5110   -1.5322   -2.9735 C   0  0  0  0  0  0  0  0  0  0  0  0
    1.8370   -0.9121   -3.5885 H   0  0  0  0  0  0  0  0  0  0  0  0
    3.0023   -2.7355   -3.4991 C   0  0  0  0  0  0  0  0  0  0  0  0
    2.7230   -3.0463   -4.5181 H   0  0  0  0  0  0  0  0  0  0  0  0
    3.8444   -3.5494   -2.7219 C   0  0  0  0  0  0  0  0  0  0  0  0
    4.2272   -4.4980   -3.1295 H   0  0  0  0  0  0  0  0  0  0  0  0
    4.1944   -3.1452   -1.4247 C   0  0  0  0  0  0  0  0  0  0  0  0
    4.8567   -3.7761   -0.8107 H   0  0  0  0  0  0  0  0  0  0  0  0
    3.7040   -1.9343   -0.9063 C   0  0  0  0  0  0  0  0  0  0  0  0
    3.9876   -1.6267    0.1127 H   0  0  0  0  0  0  0  0  0  0  0  0
    3.1125    0.8762    0.6378 C   0  0  0  0  0  0  0  0  0  0  0  0
    4.4332    1.3809    0.6000 C   0  0  0  0  0  0  0  0  0  0  0  0
    4.9103    1.5804   -0.3740 H   0  0  0  0  0  0  0  0  0  0  0  0
    5.1509    1.6314    1.7806 C   0  0  0  0  0  0  0  0  0  0  0  0
    6.1777    2.0265    1.7273 H   0  0  0  0  0  0  0  0  0  0  0  0
    4.5607    1.3741    3.0294 C   0  0  0  0  0  0  0  0  0  0  0  0
    5.1233    1.5669    3.9563 H   0  0  0  0  0  0  0  0  0  0  0  0
    3.2533    0.8657    3.0883 C   0  0  0  0  0  0  0  0  0  0  0  0
    2.7846    0.6485    4.0609 H   0  0  0  0  0  0  0  0  0  0  0  0
    2.5378    0.6240    1.9041 C   0  0  0  0  0  0  0  0  0  0  0  0
    1.5152    0.2211    1.9638 H   0  0  0  0  0  0  0  0  0  0  0  0
    2.6978    1.5609   -1.9570 H   0  0  0  0  0  0  0  0  0  0  0  0
  1 13  1  0  0  0  0
  2  1  1  0  0  0  0
  2 11  1  0  0  0  0
  3  2  2  0  0  0  0
  4  3  1  0  0  0  0
  5  3  1  0  0  0  0
  5  7  2  0  0  0  0
  6  5  1  0  0  0  0
  7  9  1  0  0  0  0
  8  7  1  0  0  0  0
  9 11  2  0  0  0  0
  9 10  1  0  0  0  0
 11 12  1  0  0  0  0
 13 22  1  0  0  0  0
 14 13  2  0  0  0  0
 14 16  1  0  0  0  0
 15 14  1  0  0  0  0
 16 18  2  0  0  0  0
 17 16  1  0  0  0  0
 18 20  1  0  0  0  0
 18 19  1  0  0  0  0
 20 21  1  0  0  0  0
 22 23  1  0  0  0  0
 22 20  2  0  0  0  0
 24  1  1  0  0  0  0
M  END
