1
q = nan, confidence = 0.0

 23 23  0  0  0  0  0  0  0  0999 V2000
    0.0641    0.8393    1.9780 Si  0  0  0  0  0  3  0  0  0  0  0  0
    1.6262    1.7658    2.5760 C   0  0  0  0  0  0  0  0  0  0  0  0
    1.3321    2.4289    3.4180 H   0  0  0  0  0  0  0  0  0  0  0  0
    2.0465    2.4112    1.7790 H   0  0  0  0  0  0  0  0  0  0  0  0
    2.4215    1.0915    2.9459 H   0  0  0  0  0  0  0  0  0  0  0  0
   -0.6701   -0.0429    3.4918 C   0  0  0  0  0  0  0  0  0  0  0  0
    0.0014   -0.8546    3.8406 H   0  0  0  0  0  0  0  0  0  0  0  0
   -1.6435   -0.4999    3.2246 H   0  0  0  0  0  0  0  0  0  0  0  0
   -0.8224    0.6649    4.3340 H   0  0  0  0  0  0  0  0  0  0  0  0
   -1.1335    2.2820    1.4991 C   0  0  0  0  0  0  0  0  0  0  0  0
   -2.1335    1.8298    1.3502 H   0  0  0  0  0  0  0  0  0  0  0  0
   -1.1817    2.9601    2.3781 H   0  0  0  0  0  0  0  0  0  0  0  0
   -0.6767    3.0204    0.2758 C   0  0  0  0  0  0  0  0  0  0  0  0
   -1.0253    2.5686   -1.0199 C   0  0  0  0  0  0  0  0  0  0  0  0
   -1.6807    1.6894   -1.1107 H   0  0  0  0  0  0  0  0  0  0  0  0
   -0.5438    3.2151   -2.1672 C   0  0  0  0  0  0  0  0  0  0  0  0
   -0.8368    2.8443   -3.1624 H   0  0  0  0  0  0  0  0  0  0  0  0
    0.3024    4.3316   -2.0554 C   0  0  0  0  0  0  0  0  0  0  0  0
    0.6781    4.8401   -2.9564 H   0  0  0  0  0  0  0  0  0  0  0  0
    0.6523    4.7974   -0.7781 C   0  0  0  0  0  0  0  0  0  0  0  0
    1.3056    5.6777   -0.6721 H   0  0  0  0  0  0  0  0  0  0  0  0
    0.1687    4.1493    0.3694 C   0  0  0  0  0  0  0  0  0  0  0  0
    0.4464    4.5276    1.3663 H   0  0  0  0  0  0  0  0  0  0  0  0
  1  2  1  0  0  0  0
  1  6  1  0  0  0  0
  2  5  1  0  0  0  0
  2  3  1  0  0  0  0
  4  2  1  0  0  0  0
  6  7  1  0  0  0  0
  6  9  1  0  0  0  0
  8  6  1  0  0  0  0
 10  1  1  0  0  0  0
 10 12  1  0  0  0  0
 11 10  1  0  0  0  0
 13 22  1  0  0  0  0
 13 10  1  0  0  0  0
 14 13  2  0  0  0  0
 15 14  1  0  0  0  0
 16 18  2  0  0  0  0
 16 14  1  0  0  0  0
 17 16  1  0  0  0  0
 18 20  1  0  0  0  0
 19 18  1  0  0  0  0
 20 21  1  0  0  0  0
 20 22  2  0  0  0  0
 22 23  1  0  0  0  0
M  END
