1
q = nan, confidence = 0.0

 22 21  0  0  0  0  0  0  0  0999 V2000
   -1.2524   -2.3504    0.5291 Si  0  0  0  0  0  3  0  0  0  0  0  0
   -2.9053   -2.1478    1.4972 C   0  0  0  0  0  0  0  0  0  0  0  0
   -2.7042   -1.5114    2.3840 H   0  0  0  0  0  0  0  0  0  0  0  0
   -3.6214   -1.5725    0.8757 H   0  0  0  0  0  0  0  0  0  0  0  0
   -3.5602   -3.4706    1.9234 C   0  0  0  0  0  0  0  0  0  0  0  0
   -2.8675   -4.1228    2.4944 H   0  0  0  0  0  0  0  0  0  0  0  0
   -3.9057   -4.0590    1.0495 H   0  0  0  0  0  0  0  0  0  0  0  0
   -4.4470   -3.2985    2.5702 H   0  0  0  0  0  0  0  0  0  0  0  0
    0.0643   -3.0029    1.7892 C   0  0  0  0  0  0  0  0  0  0  0  0
    0.2576   -4.0681    1.5292 H   0  0  0  0  0  0  0  0  0  0  0  0
    1.0190   -2.4708    1.5970 H   0  0  0  0  0  0  0  0  0  0  0  0
   -0.2795   -2.8883    3.2804 C   0  0  0  0  0  0  0  0  0  0  0  0
   -1.1701   -3.4895    3.5510 H   0  0  0  0  0  0  0  0  0  0  0  0
   -0.4940   -1.8406    3.5703 H   0  0  0  0  0  0  0  0  0  0  0  0
    0.5576   -3.2413    3.9198 H   0  0  0  0  0  0  0  0  0  0  0  0
   -1.6111   -3.7721   -0.7106 C   0  0  0  0  0  0  0  0  0  0  0  0
   -0.6969   -4.0451   -1.2758 H   0  0  0  0  0  0  0  0  0  0  0  0
   -1.8200   -4.6455   -0.0497 H   0  0  0  0  0  0  0  0  0  0  0  0
   -2.7751   -3.5396   -1.6790 C   0  0  0  0  0  0  0  0  0  0  0  0
   -2.4972   -2.7723   -2.4281 H   0  0  0  0  0  0  0  0  0  0  0  0
   -3.6897   -3.1885   -1.1561 H   0  0  0  0  0  0  0  0  0  0  0  0
   -3.0486   -4.4653   -2.2287 H   0  0  0  0  0  0  0  0  0  0  0  0
  1  2  1  0  0  0  0
  1  9  1  0  0  0  0
  2  5  1  0  0  0  0
  2  3  1  0  0  0  0
  4  2  1  0  0  0  0
  5  6  1  0  0  0  0
  5  8  1  0  0  0  0
  7  5  1  0  0  0  0
  9 12  1  0  0  0  0
 10  9  1  0  0  0  0
 11  9  1  0  0  0  0
 12 13  1  0  0  0  0
 12 14  1  0  0  0  0
 12 15  1  0  0  0  0
 16 18  1  0  0  0  0
 16  1  1  0  0  0  0
 17 16  1  0  0  0  0
 19 21  1  0  0  0  0
 19 16  1  0  0  0  0
 20 19  1  0  0  0  0
 22 19  1  0  0  0  0
M  END
