1
q = nan, confidence = 0.0

 15 14  0  0  0  0  0  0  0  0999 V2000
   -0.0000    1.7205   -0.0005 Si  0  0  0  0  0  2  0  0  0  0  0  0
   -1.4380    2.9809   -0.3816 C   0  0  0  0  0  0  0  0  0  0  0  0
   -1.1936    3.4499   -1.3645 H   0  0  0  0  0  0  0  0  0  0  0  0
   -2.3681    2.4006   -0.5640 H   0  0  0  0  0  0  0  0  0  0  0  0
   -1.6985    4.0808    0.6588 C   0  0  0  0  0  0  0  0  0  0  0  0
   -2.5424    4.7442    0.3705 H   0  0  0  0  0  0  0  0  0  0  0  0
   -1.9466    3.6538    1.6536 H   0  0  0  0  0  0  0  0  0  0  0  0
   -0.8113    4.7304    0.8043 H   0  0  0  0  0  0  0  0  0  0  0  0
    1.4379    2.9812    0.3798 C   0  0  0  0  0  0  0  0  0  0  0  0
    1.1934    3.4508    1.3624 H   0  0  0  0  0  0  0  0  0  0  0  0
    2.3680    2.4011    0.5626 H   0  0  0  0  0  0  0  0  0  0  0  0
    1.6982    4.0805   -0.6612 C   0  0  0  0  0  0  0  0  0  0  0  0
    2.5422    4.7441   -0.3733 H   0  0  0  0  0  0  0  0  0  0  0  0
    1.9464    3.6530   -1.6558 H   0  0  0  0  0  0  0  0  0  0  0  0
    0.8111    4.7300   -0.8071 H   0  0  0  0  0  0  0  0  0  0  0  0
  1  9  1  0  0  0  0
  2  1  1  0  0  0  0
  2  5  1  0  0  0  0
  3  2  1  0  0  0  0
  4  2  1  0  0  0  0
  5  8  1  0  0  0  0
  5  7  1  0  0  0  0
  6  5  1  0  0  0  0
  9 11  1  0  0  0  0
  9 10  1  0  0  0  0
 12 13  1  0  0  0  0
 12  9  1  0  0  0  0
 14 12  1  0  0  0  0
 15 12  1  0  0  0  0
M  END
