1
q = -1.0, confidence = 0.0

 36 37  0  0  0  0  0  0  0  0999 V2000
    0.5512    0.0977    0.6539 Si  0  0  0  0  0  3  0  0  0  0  0  0
    2.7531   -3.1957   -0.7987 C   0  0  0  0  0  0  0  0  0  0  0  0
    1.9731   -0.9916   -0.0300 C   0  0  0  0  0  0  0  0  0  0  0  0
    0.7815   -1.5157    2.9849 C   0  0  0  0  0  0  0  0  0  0  0  0
    0.9331    1.8833    0.0637 C   0  0  0  0  0  0  0  0  0  0  0  0
    1.7262   -2.3463   -0.3564 C   0  0  0  0  0  0  0  0  0  0  0  0
    0.6978   -0.0248    2.6096 C   0  0  0  0  0  0  0  0  0  0  0  0
    1.2885    4.4996   -1.0313 C   0  0  0  0  0  0  0  0  0  0  0  0
    0.5691    3.0465    0.7847 C   0  0  0  0  0  0  0  0  0  0  0  0
    3.3000   -0.5205   -0.1676 C   0  0  0  0  0  0  0  0  0  0  0  0
   -0.5464    0.5834    3.2822 C   0  0  0  0  0  0  0  0  0  0  0  0
    1.4836    2.0816   -1.2278 C   0  0  0  0  0  0  0  0  0  0  0  0
    4.3320   -1.3627   -0.6126 C   0  0  0  0  0  0  0  0  0  0  0  0
    1.6602    3.3636   -1.7696 C   0  0  0  0  0  0  0  0  0  0  0  0
    4.0616   -2.7036   -0.9301 C   0  0  0  0  0  0  0  0  0  0  0  0
    1.9723    0.6843    3.0975 C   0  0  0  0  0  0  0  0  0  0  0  0
    0.7435    4.3341    0.2510 C   0  0  0  0  0  0  0  0  0  0  0  0
    2.5312   -4.2461   -1.0453 H   0  0  0  0  0  0  0  0  0  0  0  0
   -0.1055   -2.0833    2.6366 H   0  0  0  0  0  0  0  0  0  0  0  0
    0.8349   -1.6309    4.0914 H   0  0  0  0  0  0  0  0  0  0  0  0
    1.6785   -2.0018    2.5517 H   0  0  0  0  0  0  0  0  0  0  0  0
    0.6990   -2.7369   -0.2599 H   0  0  0  0  0  0  0  0  0  0  0  0
    1.4264    5.5075   -1.4521 H   0  0  0  0  0  0  0  0  0  0  0  0
    0.1323    2.9524    1.7906 H   0  0  0  0  0  0  0  0  0  0  0  0
    3.5308    0.5297    0.0735 H   0  0  0  0  0  0  0  0  0  0  0  0
   -0.6274    1.6767    3.1162 H   0  0  0  0  0  0  0  0  0  0  0  0
   -0.5125    0.4246    4.3842 H   0  0  0  0  0  0  0  0  0  0  0  0
   -1.4824    0.1262    2.8984 H   0  0  0  0  0  0  0  0  0  0  0  0
    1.7891    1.2063   -1.8226 H   0  0  0  0  0  0  0  0  0  0  0  0
    5.3564   -0.9698   -0.7110 H   0  0  0  0  0  0  0  0  0  0  0  0
    2.0962    3.4777   -2.7748 H   0  0  0  0  0  0  0  0  0  0  0  0
    4.8699   -3.3640   -1.2807 H   0  0  0  0  0  0  0  0  0  0  0  0
    1.9705    1.7664    2.8571 H   0  0  0  0  0  0  0  0  0  0  0  0
    2.8809    0.2413    2.6403 H   0  0  0  0  0  0  0  0  0  0  0  0
    2.0755    0.5850    4.2026 H   0  0  0  0  0  0  0  0  0  0  0  0
    0.4521    5.2152    0.8443 H   0  0  0  0  0  0  0  0  0  0  0  0
  1  7  1  0  0  0  0
  2  6  1  0  0  0  0
  3  1  1  0  0  0  0
  4 20  1  0  0  0  0
  5  1  1  0  0  0  0
  5  9  1  0  0  0  0
  6 22  1  0  0  0  0
  6  3  2  0  0  0  0
  7  4  1  0  0  0  0
  7 16  1  0  0  0  0
  7 11  1  0  0  0  0
  8 17  1  0  0  0  0
  9 24  1  0  0  0  0
 10  3  1  0  0  0  0
 10 25  1  0  0  0  0
 11 27  1  0  0  0  0
 12  5  2  0  0  0  0
 13 10  2  0  0  0  0
 14 12  1  0  0  0  0
 14  8  2  0  0  0  0
 15  2  2  0  0  0  0
 15 13  1  0  0  0  0
 16 35  1  0  0  0  0
 17  9  2  0  0  0  0
 17 36  1  0  0  0  0
 18  2  1  0  0  0  0
 19  4  1  0  0  0  0
 21  4  1  0  0  0  0
 23  8  1  0  0  0  0
 26 11  1  0  0  0  0
 28 11  1  0  0  0  0
 29 12  1  0  0  0  0
 30 13  1  0  0  0  0
 31 14  1  0  0  0  0
 32 15  1  0  0  0  0
 33 16  1  0  0  0  0
 34 16  1  0  0  0  0
M  END
