1
q = nan, confidence = 0.0

 31 37  0  0  1  0  0  0  0  0999 V2000
    1.6196    1.6835   -0.3321 Si  0  0  0  0  0  3  0  0  0  0  0  0
    3.4334   -0.8159   -0.0694 C   0  0  2  0  0  0  0  0  0  0  0  0
    3.3896    0.8461   -0.0524 C   0  0  0  0  0  0  0  0  0  0  0  0
    1.6985    3.1747    0.8376 C   0  0  0  0  0  0  0  0  0  0  0  0
    2.5806    3.8011    0.5958 H   0  0  0  0  0  0  0  0  0  0  0  0
    1.7778    2.8580    1.8958 H   0  0  0  0  0  0  0  0  0  0  0  0
    0.7954    3.8065    0.7336 H   0  0  0  0  0  0  0  0  0  0  0  0
    1.6520    2.3317   -2.1161 C   0  0  0  0  0  0  0  0  0  0  0  0
    0.7716    2.9805   -2.2904 H   0  0  0  0  0  0  0  0  0  0  0  0
    1.6105    1.5080   -2.8547 H   0  0  0  0  0  0  0  0  0  0  0  0
    2.5675    2.9278   -2.3072 H   0  0  0  0  0  0  0  0  0  0  0  0
    3.5998   -0.0034    1.4246 B   0  0  2  0  0  0  0  0  0  0  0  0
    2.6683   -0.0419    2.1907 H   0  0  0  0  0  0  0  0  0  0  0  0
    4.6010   -1.4285    1.0253 B   0  0  2  0  0  0  0  0  0  0  0  0
    4.3767   -2.4648    1.5954 H   0  0  0  0  0  0  0  0  0  0  0  0
    4.8904   -1.4092   -0.7277 B   0  0  2  0  0  0  0  0  0  0  0  0
    4.8516   -2.4357   -1.3621 H   0  0  0  0  0  0  0  0  0  0  0  0
    4.0874    0.0354   -1.3997 B   0  0  2  0  0  0  0  0  0  0  0  0
    3.4917    0.0312   -2.4437 H   0  0  0  0  0  0  0  0  0  0  0  0
    4.5565    1.4442    1.0546 B   0  0  1  0  0  0  0  0  0  0  0  0
    4.3103    2.4567    1.6562 H   0  0  0  0  0  0  0  0  0  0  0  0
    5.3525    0.0093    1.7420 B   0  0  0  0  0  0  0  0  0  0  0  0
    5.7548   -0.0030    2.8810 H   0  0  0  0  0  0  0  0  0  0  0  0
    6.1592   -0.8564    0.3938 B   0  0  1  0  0  0  0  0  0  0  0  0
    7.1615   -1.5124    0.5538 H   0  0  0  0  0  0  0  0  0  0  0  0
    5.8398    0.0480   -1.1194 B   0  0  0  0  0  0  0  0  0  0  0  0
    6.5976    0.0657   -2.0599 H   0  0  0  0  0  0  0  0  0  0  0  0
    4.8462    1.4710   -0.6909 B   0  0  2  0  0  0  0  0  0  0  0  0
    4.7908    2.5045   -1.3100 H   0  0  0  0  0  0  0  0  0  0  0  0
    6.1339    0.9242    0.4146 B   0  0  1  0  0  0  0  0  0  0  0  0
    7.1247    1.5932    0.5902 H   0  0  0  0  0  0  0  0  0  0  0  0
  1  4  1  0  0  0  0
  1  3  1  0  0  0  0
  2  3  1  1  0  0  0
  2 12  1  0  0  0  0
  3 20  1  0  0  0  0
  3 12  1  0  0  0  0
  4  6  1  0  0  0  0
  5  4  1  0  0  0  0
  7  4  1  0  0  0  0
  8  1  1  0  0  0  0
  9  8  1  0  0  0  0
 10  8  1  0  0  0  0
 11  8  1  0  0  0  0
 12 13  1  1  0  0  0
 14 15  1  1  0  0  0
 14 22  1  0  0  0  0
 16 17  1  6  0  0  0
 16  2  1  0  0  0  0
 16 24  1  0  0  0  0
 16 14  1  0  0  0  0
 18 19  1  6  0  0  0
 18 26  1  0  0  0  0
 18 28  1  0  0  0  0
 18  2  1  0  0  0  0
 20 12  1  0  0  0  0
 20 21  1  1  0  0  0
 22 23  1  0  0  0  0
 24 30  1  0  0  0  0
 24 25  1  1  0  0  0
 24 14  1  0  0  0  0
 26 30  1  0  0  0  0
 27 26  1  0  0  0  0
 28 29  1  6  0  0  0
 28  3  1  0  0  0  0
 28 20  1  0  0  0  0
 30 31  1  1  0  0  0
 30 22  1  0  0  0  0
M  ZBO  1   2   0
M  END
