1
q = nan, confidence = 0.0

 31 37  0  0  1  0  0  0  0  0999 V2000
   -1.6197    1.6834    0.3324 Si  0  0  0  0  0  3  0  0  0  0  0  0
   -3.4334   -0.8158    0.0693 C   0  0  2  0  0  0  0  0  0  0  0  0
   -3.3895    0.8461    0.0521 C   0  0  0  0  0  0  0  0  0  0  0  0
   -1.6985    3.1750   -0.8367 C   0  0  0  0  0  0  0  0  0  0  0  0
   -2.5807    3.8013   -0.5948 H   0  0  0  0  0  0  0  0  0  0  0  0
   -1.7775    2.8588   -1.8950 H   0  0  0  0  0  0  0  0  0  0  0  0
   -0.7955    3.8070   -0.7323 H   0  0  0  0  0  0  0  0  0  0  0  0
   -1.6522    2.3310    2.1167 C   0  0  0  0  0  0  0  0  0  0  0  0
   -0.7720    2.9799    2.2912 H   0  0  0  0  0  0  0  0  0  0  0  0
   -1.6105    1.5070    2.8550 H   0  0  0  0  0  0  0  0  0  0  0  0
   -2.5679    2.9268    2.3080 H   0  0  0  0  0  0  0  0  0  0  0  0
   -3.5993   -0.0034   -1.4249 B   0  0  2  0  0  0  0  0  0  0  0  0
   -2.6676   -0.0419   -2.1907 H   0  0  0  0  0  0  0  0  0  0  0  0
   -4.6007   -1.4285   -1.0258 B   0  0  2  0  0  0  0  0  0  0  0  0
   -4.3762   -2.4649   -1.5958 H   0  0  0  0  0  0  0  0  0  0  0  0
   -4.8906   -1.4092    0.7271 B   0  0  2  0  0  0  0  0  0  0  0  0
   -4.8519   -2.4357    1.3615 H   0  0  0  0  0  0  0  0  0  0  0  0
   -4.0878    0.0354    1.3993 B   0  0  2  0  0  0  0  0  0  0  0  0
   -3.4924    0.0313    2.4435 H   0  0  0  0  0  0  0  0  0  0  0  0
   -4.5561    1.4442   -1.0552 B   0  0  1  0  0  0  0  0  0  0  0  0
   -4.3097    2.4566   -1.6568 H   0  0  0  0  0  0  0  0  0  0  0  0
   -5.3520    0.0092   -1.7428 B   0  0  0  0  0  0  0  0  0  0  0  0
   -5.7539   -0.0031   -2.8819 H   0  0  0  0  0  0  0  0  0  0  0  0
   -6.1591   -0.8564   -0.3948 B   0  0  1  0  0  0  0  0  0  0  0  0
   -7.1613   -1.5124   -0.5551 H   0  0  0  0  0  0  0  0  0  0  0  0
   -5.8401    0.0480    1.1184 B   0  0  0  0  0  0  0  0  0  0  0  0
   -6.5982    0.0658    2.0587 H   0  0  0  0  0  0  0  0  0  0  0  0
   -4.8464    1.4710    0.6902 B   0  0  2  0  0  0  0  0  0  0  0  0
   -4.7911    2.5046    1.3092 H   0  0  0  0  0  0  0  0  0  0  0  0
   -6.1337    0.9242   -0.4156 B   0  0  1  0  0  0  0  0  0  0  0  0
   -7.1244    1.5932   -0.5915 H   0  0  0  0  0  0  0  0  0  0  0  0
  1  8  1  0  0  0  0
  1  3  1  0  0  0  0
  2  3  1  6  0  0  0
  2 16  1  0  0  0  0
  2 18  1  0  0  0  0
  3 28  1  0  0  0  0
  4  7  1  0  0  0  0
  4  5  1  0  0  0  0
  4  1  1  0  0  0  0
  6  4  1  0  0  0  0
  8  9  1  0  0  0  0
  8 11  1  0  0  0  0
  8 10  1  0  0  0  0
 12 13  1  6  0  0  0
 12 20  1  0  0  0  0
 12  3  1  0  0  0  0
 12  2  1  0  0  0  0
 14 15  1  6  0  0  0
 14 24  1  0  0  0  0
 14 16  1  0  0  0  0
 16 17  1  1  0  0  0
 18 19  1  1  0  0  0
 20 21  1  6  0  0  0
 20  3  1  0  0  0  0
 20 28  1  0  0  0  0
 22 14  1  0  0  0  0
 22 30  1  0  0  0  0
 23 22  1  0  0  0  0
 24 25  1  6  0  0  0
 24 16  1  0  0  0  0
 26 18  1  0  0  0  0
 26 27  1  0  0  0  0
 28 29  1  1  0  0  0
 28 18  1  0  0  0  0
 30 31  1  6  0  0  0
 30 24  1  0  0  0  0
 30 26  1  0  0  0  0
M  ZBO  1   2   0
M  END
