1
q = 0.0, confidence = 0.996

 42 43  0  0  1  0  0  0  0  0999 V2000
   -0.6491   -0.0003   -0.8695 Si  0  0  1  0  0  3  0  0  0  0  0  0
   -0.7316   -0.0012   -2.5265 F   0  0  0  0  0  0  0  0  0  0  0  0
    0.8535   -1.0854   -0.5506 N   0  0  0  0  0  0  0  0  0  0  0  0
    1.6134    0.0001   -0.3106 C   0  0  1  0  0  3  0  0  0  0  0  0
    0.8535    1.0853   -0.5518 N   0  0  0  0  0  0  0  0  0  0  0  0
    1.1753    2.5269   -0.5947 C   0  0  0  0  0  0  0  0  0  0  0  0
   -0.1278    3.2484   -0.9806 C   0  0  0  0  0  0  0  0  0  0  0  0
   -0.8926    3.1559   -0.1877 H   0  0  0  0  0  0  0  0  0  0  0  0
   -0.5435    2.8390   -1.9232 H   0  0  0  0  0  0  0  0  0  0  0  0
    0.0706    4.3267   -1.1336 H   0  0  0  0  0  0  0  0  0  0  0  0
    2.2311    2.7815   -1.6890 C   0  0  0  0  0  0  0  0  0  0  0  0
    3.2027    2.3195   -1.4298 H   0  0  0  0  0  0  0  0  0  0  0  0
    2.3975    3.8707   -1.8078 H   0  0  0  0  0  0  0  0  0  0  0  0
    1.8891    2.3729   -2.6607 H   0  0  0  0  0  0  0  0  0  0  0  0
    1.6722    3.0411    0.7687 C   0  0  0  0  0  0  0  0  0  0  0  0
    0.9341    2.8181    1.5631 H   0  0  0  0  0  0  0  0  0  0  0  0
    1.8092    4.1400    0.7240 H   0  0  0  0  0  0  0  0  0  0  0  0
    2.6449    2.5917    1.0455 H   0  0  0  0  0  0  0  0  0  0  0  0
    1.1760   -2.5269   -0.5939 C   0  0  0  0  0  0  0  0  0  0  0  0
    2.2289   -2.7811   -1.6912 C   0  0  0  0  0  0  0  0  0  0  0  0
    3.2008   -2.3181   -1.4348 H   0  0  0  0  0  0  0  0  0  0  0  0
    1.8837   -2.3731   -2.6620 H   0  0  0  0  0  0  0  0  0  0  0  0
    2.3960   -3.8701   -1.8100 H   0  0  0  0  0  0  0  0  0  0  0  0
    1.6769   -3.0404    0.7683 C   0  0  0  0  0  0  0  0  0  0  0  0
    1.8136   -4.1394    0.7236 H   0  0  0  0  0  0  0  0  0  0  0  0
    0.9412   -2.8169    1.5646 H   0  0  0  0  0  0  0  0  0  0  0  0
    2.6505   -2.5911    1.0421 H   0  0  0  0  0  0  0  0  0  0  0  0
   -0.1277   -3.2493   -0.9760 C   0  0  0  0  0  0  0  0  0  0  0  0
    0.0709   -4.3276   -1.1290 H   0  0  0  0  0  0  0  0  0  0  0  0
   -0.5463   -2.8406   -1.9177 H   0  0  0  0  0  0  0  0  0  0  0  0
   -0.8904   -3.1569   -0.1810 H   0  0  0  0  0  0  0  0  0  0  0  0
    3.0018    0.0003    0.2297 C   0  0  0  0  0  0  0  0  0  0  0  0
    4.1251   -0.0001   -0.6197 C   0  0  0  0  0  0  0  0  0  0  0  0
    3.9853   -0.0003   -1.7104 H   0  0  0  0  0  0  0  0  0  0  0  0
    5.4170   -0.0001   -0.0723 C   0  0  0  0  0  0  0  0  0  0  0  0
    6.2911   -0.0004   -0.7403 H   0  0  0  0  0  0  0  0  0  0  0  0
    5.5934    0.0003    1.3200 C   0  0  0  0  0  0  0  0  0  0  0  0
    6.6077    0.0003    1.7463 H   0  0  0  0  0  0  0  0  0  0  0  0
    4.4744    0.0007    2.1687 C   0  0  0  0  0  0  0  0  0  0  0  0
    4.6081    0.0010    3.2607 H   0  0  0  0  0  0  0  0  0  0  0  0
    3.1812    0.0007    1.6284 C   0  0  0  0  0  0  0  0  0  0  0  0
    2.3004    0.0009    2.2874 H   0  0  0  0  0  0  0  0  0  0  0  0
  1  2  1  6  0  0  0
  1  5  1  0  0  0  0
  1  3  1  0  0  0  0
  3  4  1  0  0  0  0
  4 32  1  1  0  0  0
  5  4  1  0  0  0  0
  6  5  1  0  0  0  0
  6 15  1  0  0  0  0
  7  6  1  0  0  0  0
  7  8  1  0  0  0  0
  9  7  1  0  0  0  0
 10  7  1  0  0  0  0
 11 12  1  0  0  0  0
 11  6  1  0  0  0  0
 13 11  1  0  0  0  0
 14 11  1  0  0  0  0
 15 18  1  0  0  0  0
 15 16  1  0  0  0  0
 17 15  1  0  0  0  0
 19  3  1  0  0  0  0
 19 24  1  0  0  0  0
 20 21  1  0  0  0  0
 20 19  1  0  0  0  0
 22 20  1  0  0  0  0
 23 20  1  0  0  0  0
 24 27  1  0  0  0  0
 24 26  1  0  0  0  0
 25 24  1  0  0  0  0
 28 19  1  0  0  0  0
 28 31  1  0  0  0  0
 29 28  1  0  0  0  0
 30 28  1  0  0  0  0
 32 41  1  0  0  0  0
 33 35  1  0  0  0  0
 33 32  2  0  0  0  0
 34 33  1  0  0  0  0
 35 37  2  0  0  0  0
 36 35  1  0  0  0  0
 37 38  1  0  0  0  0
 37 39  1  0  0  0  0
 39 40  1  0  0  0  0
 41 39  2  0  0  0  0
 41 42  1  0  0  0  0
M  END
