1
q = nan, confidence = 0.0

 26 28  0  0  1  0  0  0  0  0999 V2000
    2.1909   -0.1733    0.0001 Si  0  0  1  0  0  3  0  0  0  0  0  0
    4.2109   -1.3249    0.7163 C   0  0  0  0  0  0  0  0  0  0  0  0
    4.0437    0.0331    1.1682 C   0  0  1  0  0  0  0  0  0  0  0  0
    3.9734    0.8936   -0.0008 C   0  0  1  0  0  0  0  0  0  0  0  0
    4.0436    0.0308   -1.1681 C   0  0  1  0  0  0  0  0  0  0  0  0
    4.2109   -1.3263   -0.7135 C   0  0  0  0  0  0  0  0  0  0  0  0
    4.2686   -2.5164    1.6214 C   0  0  0  0  0  0  0  0  0  0  0  0
    3.3460   -2.6122    2.2323 H   0  0  0  0  0  0  0  0  0  0  0  0
    5.1190   -2.4405    2.3300 H   0  0  0  0  0  0  0  0  0  0  0  0
    4.3868   -3.4577    1.0530 H   0  0  0  0  0  0  0  0  0  0  0  0
    4.0308    0.4933    2.5954 C   0  0  0  0  0  0  0  0  0  0  0  0
    3.3578    1.3594    2.7407 H   0  0  0  0  0  0  0  0  0  0  0  0
    5.0515    0.7959    2.9134 H   0  0  0  0  0  0  0  0  0  0  0  0
    3.6950   -0.3118    3.2763 H   0  0  0  0  0  0  0  0  0  0  0  0
    3.9371    2.3937   -0.0023 C   0  0  0  0  0  0  0  0  0  0  0  0
    3.4133    2.7853   -0.8944 H   0  0  0  0  0  0  0  0  0  0  0  0
    4.9712    2.7985   -0.0037 H   0  0  0  0  0  0  0  0  0  0  0  0
    3.4149    2.7871    0.8899 H   0  0  0  0  0  0  0  0  0  0  0  0
    4.0309    0.4883   -2.5961 C   0  0  0  0  0  0  0  0  0  0  0  0
    3.6959   -0.3183   -3.2756 H   0  0  0  0  0  0  0  0  0  0  0  0
    5.0515    0.7910   -2.9143 H   0  0  0  0  0  0  0  0  0  0  0  0
    3.3573    1.3537   -2.7433 H   0  0  0  0  0  0  0  0  0  0  0  0
    4.2687   -2.5196   -1.6162 C   0  0  0  0  0  0  0  0  0  0  0  0
    4.3882   -3.4596   -1.0461 H   0  0  0  0  0  0  0  0  0  0  0  0
    5.1185   -2.4444   -2.3257 H   0  0  0  0  0  0  0  0  0  0  0  0
    3.3457   -2.6174   -2.2261 H   0  0  0  0  0  0  0  0  0  0  0  0
  1  5  1  0  0  0  0
  1  3  1  0  0  0  0
  2  3  1  0  0  0  0
  2  7  1  0  0  0  0
  3 11  1  1  0  0  0
  4  1  1  0  0  0  0
  4  3  1  0  0  0  0
  5 19  1  6  0  0  0
  5  6  1  0  0  0  0
  5  4  1  0  0  0  0
  6  2  2  0  0  0  0
  7  8  1  0  0  0  0
  7  9  1  0  0  0  0
 10  7  1  0  0  0  0
 11 12  1  0  0  0  0
 11 13  1  0  0  0  0
 11 14  1  0  0  0  0
 15  4  1  0  0  0  0
 15 18  1  0  0  0  0
 16 15  1  0  0  0  0
 17 15  1  0  0  0  0
 20 19  1  0  0  0  0
 21 19  1  0  0  0  0
 22 19  1  0  0  0  0
 23 24  1  0  0  0  0
 23  6  1  0  0  0  0
 25 23  1  0  0  0  0
 26 23  1  0  0  0  0
M  HYD  2   3   0   5   0
M  ZBO  2   1   0   2   0
M  END
