1
q = -1.0, confidence = 0.0

 30 31  0  0  0  0  0  0  0  0999 V2000
   -0.7752   -0.0479    0.5111 Si  0  0  0  0  0  3  0  0  0  0  0  0
   -0.7404   -0.2083    2.0175 H   0  0  0  0  0  0  0  0  0  0  0  0
   -1.5864    1.6568    0.1982 C   0  0  0  0  0  0  0  0  0  0  0  0
   -1.1257    2.5122   -0.8249 C   0  0  0  0  0  0  0  0  0  0  0  0
   -0.2852    2.1898   -1.4553 H   0  0  0  0  0  0  0  0  0  0  0  0
   -1.7169    3.7607   -1.0760 C   0  0  0  0  0  0  0  0  0  0  0  0
   -1.3353    4.4000   -1.8872 H   0  0  0  0  0  0  0  0  0  0  0  0
   -2.7971    4.1794   -0.2879 C   0  0  0  0  0  0  0  0  0  0  0  0
   -3.2721    5.1567   -0.4651 H   0  0  0  0  0  0  0  0  0  0  0  0
   -3.2825    3.3375    0.7237 C   0  0  0  0  0  0  0  0  0  0  0  0
   -4.1426    3.6601    1.3327 H   0  0  0  0  0  0  0  0  0  0  0  0
   -2.7038    2.0776    0.9790 C   0  0  0  0  0  0  0  0  0  0  0  0
   -3.2900    1.1973    2.0558 C   0  0  0  0  0  0  0  0  0  0  0  0
   -2.5609    1.0070    2.8708 H   0  0  0  0  0  0  0  0  0  0  0  0
   -3.5695    0.2027    1.6492 H   0  0  0  0  0  0  0  0  0  0  0  0
   -4.1939    1.6539    2.5031 H   0  0  0  0  0  0  0  0  0  0  0  0
   -2.0385   -1.3141   -0.1459 C   0  0  0  0  0  0  0  0  0  0  0  0
   -2.6397   -1.0365   -1.3947 C   0  0  0  0  0  0  0  0  0  0  0  0
   -2.3853   -0.1009   -1.9189 H   0  0  0  0  0  0  0  0  0  0  0  0
   -3.5558   -1.9191   -1.9846 C   0  0  0  0  0  0  0  0  0  0  0  0
   -4.0065   -1.6782   -2.9596 H   0  0  0  0  0  0  0  0  0  0  0  0
   -3.8919   -3.1066   -1.3191 C   0  0  0  0  0  0  0  0  0  0  0  0
   -4.6104   -3.8113   -1.7658 H   0  0  0  0  0  0  0  0  0  0  0  0
   -3.3085   -3.3964   -0.0770 C   0  0  0  0  0  0  0  0  0  0  0  0
   -3.5761   -4.3297    0.4445 H   0  0  0  0  0  0  0  0  0  0  0  0
   -2.3812   -2.5220    0.5254 C   0  0  0  0  0  0  0  0  0  0  0  0
   -1.7862   -2.8806    1.8665 C   0  0  0  0  0  0  0  0  0  0  0  0
   -0.6785   -2.9150    1.8269 H   0  0  0  0  0  0  0  0  0  0  0  0
   -2.1407   -3.8720    2.2093 H   0  0  0  0  0  0  0  0  0  0  0  0
   -2.0533   -2.1337    2.6430 H   0  0  0  0  0  0  0  0  0  0  0  0
  1  2  1  0  0  0  0
  3  1  1  0  0  0  0
  3 12  1  0  0  0  0
  4  3  2  0  0  0  0
  5  4  1  0  0  0  0
  6  4  1  0  0  0  0
  6  8  2  0  0  0  0
  7  6  1  0  0  0  0
  8 10  1  0  0  0  0
  9  8  1  0  0  0  0
 10 12  2  0  0  0  0
 10 11  1  0  0  0  0
 12 13  1  0  0  0  0
 13 16  1  0  0  0  0
 13 14  1  0  0  0  0
 15 13  1  0  0  0  0
 17  1  1  0  0  0  0
 17 26  1  0  0  0  0
 18 17  2  0  0  0  0
 19 18  1  0  0  0  0
 20 18  1  0  0  0  0
 20 22  2  0  0  0  0
 21 20  1  0  0  0  0
 22 24  1  0  0  0  0
 23 22  1  0  0  0  0
 24 25  1  0  0  0  0
 24 26  2  0  0  0  0
 26 27  1  0  0  0  0
 27 29  1  0  0  0  0
 27 30  1  0  0  0  0
 28 27  1  0  0  0  0
M  END
