1
q = 0.0, confidence = 0.886

 27 27  0  0  0  0  0  0  0  0999 V2000
   -0.9413   -0.0000   -0.0002 Si  0  0  2  0  0  3  0  0  0  0  0  0
   -2.0515   -1.6179   -0.0065 C   0  0  0  0  0  0  0  0  0  0  0  0
   -1.2425   -2.8443   -0.4688 C   0  0  0  0  0  0  0  0  0  0  0  0
   -2.4324   -1.8085    1.4847 C   0  0  0  0  0  0  0  0  0  0  0  0
   -3.3158   -1.5405   -0.8830 C   0  0  0  0  0  0  0  0  0  0  0  0
   -2.0515    1.6179    0.0062 C   0  0  0  0  0  0  0  0  0  0  0  0
   -1.2425    2.8443    0.4687 C   0  0  0  0  0  0  0  0  0  0  0  0
   -3.3159    1.5405    0.8825 C   0  0  0  0  0  0  0  0  0  0  0  0
   -2.4322    1.8086   -1.4850 C   0  0  0  0  0  0  0  0  0  0  0  0
   -0.9484   -2.7727   -1.5336 H   0  0  0  0  0  0  0  0  0  0  0  0
   -1.8713   -3.7552   -0.3584 H   0  0  0  0  0  0  0  0  0  0  0  0
   -0.3263   -3.0087    0.1278 H   0  0  0  0  0  0  0  0  0  0  0  0
   -3.0684   -0.9916    1.8779 H   0  0  0  0  0  0  0  0  0  0  0  0
   -1.5378   -1.8992    2.1361 H   0  0  0  0  0  0  0  0  0  0  0  0
   -3.0057   -2.7562    1.5967 H   0  0  0  0  0  0  0  0  0  0  0  0
   -4.0047   -0.7241   -0.5983 H   0  0  0  0  0  0  0  0  0  0  0  0
   -3.8836   -2.4927   -0.7890 H   0  0  0  0  0  0  0  0  0  0  0  0
   -3.0648   -1.4188   -1.9565 H   0  0  0  0  0  0  0  0  0  0  0  0
   -0.3263    3.0087   -0.1278 H   0  0  0  0  0  0  0  0  0  0  0  0
   -0.9485    2.7724    1.5336 H   0  0  0  0  0  0  0  0  0  0  0  0
   -1.8713    3.7552    0.3585 H   0  0  0  0  0  0  0  0  0  0  0  0
   -4.0049    0.7242    0.5977 H   0  0  0  0  0  0  0  0  0  0  0  0
   -3.8837    2.4927    0.7885 H   0  0  0  0  0  0  0  0  0  0  0  0
   -3.0651    1.4187    1.9560 H   0  0  0  0  0  0  0  0  0  0  0  0
   -3.0682    0.9917   -1.8783 H   0  0  0  0  0  0  0  0  0  0  0  0
   -1.5375    1.8992   -2.1363 H   0  0  0  0  0  0  0  0  0  0  0  0
   -3.0053    2.7563   -1.5971 H   0  0  0  0  0  0  0  0  0  0  0  0
  1  2  1  1  0  0  0
  1  6  1  0  0  0  0
  1  9  1  0  0  0  0
  2  4  1  0  0  0  0
  3 11  1  0  0  0  0
  3  2  1  0  0  0  0
  3 12  1  0  0  0  0
  4 15  1  0  0  0  0
  4 13  1  0  0  0  0
  4 14  1  0  0  0  0
  5 17  1  0  0  0  0
  5 16  1  0  0  0  0
  5  2  1  0  0  0  0
  6  7  1  0  0  0  0
  6  8  1  0  0  0  0
  7 20  1  0  0  0  0
  8 24  1  0  0  0  0
  9  6  1  0  0  0  0
 10  3  1  0  0  0  0
 18  5  1  0  0  0  0
 19  7  1  0  0  0  0
 21  7  1  0  0  0  0
 22  8  1  0  0  0  0
 23  8  1  0  0  0  0
 25  9  1  0  0  0  0
 26  9  1  0  0  0  0
 27  9  1  0  0  0  0
M  ZBO  1   3   0
M  END
