2
q = nan, confidence = 0.0

 22 21  0  0  0  0  0  0  0  0999 V2000
   -3.4997    0.6060   -0.2736 P   0  0  0  0  0  4  0  0  0  0  0  0
   -1.4037    0.5779    0.8261 Si  0  0  0  0  0  3  0  0  0  0  0  0
   -2.0177    0.3743    2.6279 C   0  0  0  0  0  0  0  0  0  0  0  0
   -1.0889    2.4486    0.6440 C   0  0  0  0  0  0  0  0  0  0  0  0
   -4.0697   -1.0198   -0.8891 C   0  0  0  0  0  0  0  0  0  0  0  0
   -4.8468    1.2351    0.7973 C   0  0  0  0  0  0  0  0  0  0  0  0
   -3.4742    1.7008   -1.7383 C   0  0  0  0  0  0  0  0  0  0  0  0
   -2.5391   -0.5821    2.8284 H   0  0  0  0  0  0  0  0  0  0  0  0
   -2.6899    1.2067    2.9188 H   0  0  0  0  0  0  0  0  0  0  0  0
   -1.1445    0.4137    3.3125 H   0  0  0  0  0  0  0  0  0  0  0  0
   -1.9571    3.0401    1.0036 H   0  0  0  0  0  0  0  0  0  0  0  0
   -0.2160    2.7297    1.2671 H   0  0  0  0  0  0  0  0  0  0  0  0
   -0.8417    2.7281   -0.3963 H   0  0  0  0  0  0  0  0  0  0  0  0
   -4.1419   -1.7412   -0.0530 H   0  0  0  0  0  0  0  0  0  0  0  0
   -5.0631   -0.9196   -1.3693 H   0  0  0  0  0  0  0  0  0  0  0  0
   -3.3410   -1.3954   -1.6321 H   0  0  0  0  0  0  0  0  0  0  0  0
   -4.9796    0.5612    1.6655 H   0  0  0  0  0  0  0  0  0  0  0  0
   -5.7968    1.2957    0.2299 H   0  0  0  0  0  0  0  0  0  0  0  0
   -4.5812    2.2435    1.1700 H   0  0  0  0  0  0  0  0  0  0  0  0
   -4.4657    1.6976   -2.2330 H   0  0  0  0  0  0  0  0  0  0  0  0
   -3.2247    2.7314   -1.4219 H   0  0  0  0  0  0  0  0  0  0  0  0
   -2.7022    1.3437   -2.4466 H   0  0  0  0  0  0  0  0  0  0  0  0
  1  6  1  0  0  0  0
  1  2  1  0  0  0  0
  2  3  1  0  0  0  0
  3  8  1  0  0  0  0
  3  9  1  0  0  0  0
  3 10  1  0  0  0  0
  4  2  1  0  0  0  0
  4 11  1  0  0  0  0
  4 12  1  0  0  0  0
  5  1  1  0  0  0  0
  5 14  1  0  0  0  0
  6 19  1  0  0  0  0
  6 17  1  0  0  0  0
  7 21  1  0  0  0  0
  7  1  1  0  0  0  0
 13  4  1  0  0  0  0
 15  5  1  0  0  0  0
 16  5  1  0  0  0  0
 18  6  1  0  0  0  0
 20  7  1  0  0  0  0
 22  7  1  0  0  0  0
M  END
