1
q = 0.0, confidence = 0.992

 33 34  0  0  0  0  0  0  0  0999 V2000
   -2.4729   -0.0000   -0.2400 Si  0  0  1  0  0  3  0  0  0  0  0  0
   -3.7367   -1.2578   -0.0353 N   0  0  0  0  0  0  0  0  0  0  0  0
   -3.7367    1.2578   -0.0354 N   0  0  0  0  0  0  0  0  0  0  0  0
   -4.9748   -0.6820    0.2402 C   0  0  0  0  0  0  0  0  0  0  0  0
   -5.8614   -1.3019    0.4120 H   0  0  0  0  0  0  0  0  0  0  0  0
   -4.9748    0.6821    0.2401 C   0  0  0  0  0  0  0  0  0  0  0  0
   -5.8613    1.3021    0.4119 H   0  0  0  0  0  0  0  0  0  0  0  0
   -3.6619   -2.7508   -0.0954 C   0  0  0  0  0  0  0  0  0  0  0  0
   -3.7609   -3.3099    1.3372 C   0  0  0  0  0  0  0  0  0  0  0  0
   -2.9117   -2.9547    1.9528 H   0  0  0  0  0  0  0  0  0  0  0  0
   -4.7027   -2.9899    1.8263 H   0  0  0  0  0  0  0  0  0  0  0  0
   -3.7413   -4.4182    1.3234 H   0  0  0  0  0  0  0  0  0  0  0  0
   -4.8132   -3.2968   -0.9665 C   0  0  0  0  0  0  0  0  0  0  0  0
   -5.8113   -3.1246   -0.5200 H   0  0  0  0  0  0  0  0  0  0  0  0
   -4.7961   -2.8290   -1.9710 H   0  0  0  0  0  0  0  0  0  0  0  0
   -4.6953   -4.3913   -1.0906 H   0  0  0  0  0  0  0  0  0  0  0  0
   -2.3450   -3.1997   -0.7368 C   0  0  0  0  0  0  0  0  0  0  0  0
   -1.4697   -2.8894   -0.1411 H   0  0  0  0  0  0  0  0  0  0  0  0
   -2.3297   -4.3048   -0.8084 H   0  0  0  0  0  0  0  0  0  0  0  0
   -2.2332   -2.7877   -1.7586 H   0  0  0  0  0  0  0  0  0  0  0  0
   -3.6617    2.7508   -0.0958 C   0  0  0  0  0  0  0  0  0  0  0  0
   -3.7610    3.3101    1.3367 C   0  0  0  0  0  0  0  0  0  0  0  0
   -2.9120    2.9550    1.9526 H   0  0  0  0  0  0  0  0  0  0  0  0
   -3.7412    4.4185    1.3227 H   0  0  0  0  0  0  0  0  0  0  0  0
   -4.7029    2.9904    1.8256 H   0  0  0  0  0  0  0  0  0  0  0  0
   -4.8127    3.2968   -0.9673 C   0  0  0  0  0  0  0  0  0  0  0  0
   -4.7953    2.8288   -1.9716 H   0  0  0  0  0  0  0  0  0  0  0  0
   -5.8110    3.1248   -0.5210 H   0  0  0  0  0  0  0  0  0  0  0  0
   -4.6946    4.3912   -1.0915 H   0  0  0  0  0  0  0  0  0  0  0  0
   -2.3445    3.1994   -0.7368 C   0  0  0  0  0  0  0  0  0  0  0  0
   -2.2325    2.7872   -1.7586 H   0  0  0  0  0  0  0  0  0  0  0  0
   -2.3291    4.3045   -0.8086 H   0  0  0  0  0  0  0  0  0  0  0  0
   -1.4695    2.8891   -0.1408 H   0  0  0  0  0  0  0  0  0  0  0  0
  1  3  1  6  0  0  0
  1  2  1  0  0  0  0
  1  4  1  0  0  0  0
  2  4  1  0  0  0  0
  3  6  1  0  0  0  0
  4  5  1  0  0  0  0
  6  4  2  0  0  0  0
  6  7  1  0  0  0  0
  8  2  1  0  0  0  0
  8  9  1  0  0  0  0
  9 11  1  0  0  0  0
  9 10  1  0  0  0  0
 12  9  1  0  0  0  0
 13 14  1  0  0  0  0
 13  8  1  0  0  0  0
 15 13  1  0  0  0  0
 16 13  1  0  0  0  0
 17 18  1  0  0  0  0
 17  8  1  0  0  0  0
 19 17  1  0  0  0  0
 20 17  1  0  0  0  0
 21  3  1  0  0  0  0
 21 22  1  0  0  0  0
 22 25  1  0  0  0  0
 22 23  1  0  0  0  0
 24 22  1  0  0  0  0
 26 28  1  0  0  0  0
 26 21  1  0  0  0  0
 27 26  1  0  0  0  0
 29 26  1  0  0  0  0
 30 33  1  0  0  0  0
 30 21  1  0  0  0  0
 31 30  1  0  0  0  0
 32 30  1  0  0  0  0
M  ZBO  1   3   0
M  END
