1
q = nan, confidence = 0.0

 22 21  0  0  0  0  0  0  0  0999 V2000
    1.8235   -0.8620   -2.0006 Si  0  0  0  0  0  3  0  0  0  0  0  0
    2.0879   -3.1298   -1.4006 Si  0  0  0  0  0  0  0  0  0  0  0  0
    1.6474   -0.7912   -3.9077 C   0  0  0  0  0  0  0  0  0  0  0  0
    1.4801    0.2504   -4.2533 H   0  0  0  0  0  0  0  0  0  0  0  0
    0.7808   -1.3959   -4.2429 H   0  0  0  0  0  0  0  0  0  0  0  0
    2.5624   -1.1740   -4.4074 H   0  0  0  0  0  0  0  0  0  0  0  0
    3.4811    0.0196   -1.6020 C   0  0  0  0  0  0  0  0  0  0  0  0
    4.2951   -0.3935   -2.2351 H   0  0  0  0  0  0  0  0  0  0  0  0
    3.7697   -0.1217   -0.5414 H   0  0  0  0  0  0  0  0  0  0  0  0
    3.4236    1.1119   -1.7943 H   0  0  0  0  0  0  0  0  0  0  0  0
    0.5269   -4.1184   -1.8583 C   0  0  0  0  0  0  0  0  0  0  0  0
    0.6380   -5.1948   -1.6083 H   0  0  0  0  0  0  0  0  0  0  0  0
    0.3109   -4.0383   -2.9438 H   0  0  0  0  0  0  0  0  0  0  0  0
   -0.3541   -3.7191   -1.3152 H   0  0  0  0  0  0  0  0  0  0  0  0
    2.3834   -3.3255    0.4736 C   0  0  0  0  0  0  0  0  0  0  0  0
    2.5925   -4.3847    0.7350 H   0  0  0  0  0  0  0  0  0  0  0  0
    1.4917   -3.0000    1.0472 H   0  0  0  0  0  0  0  0  0  0  0  0
    3.2385   -2.7090    0.8182 H   0  0  0  0  0  0  0  0  0  0  0  0
    3.5815   -3.8967   -2.3078 C   0  0  0  0  0  0  0  0  0  0  0  0
    4.5194   -3.3637   -2.0475 H   0  0  0  0  0  0  0  0  0  0  0  0
    3.4522   -3.8322   -3.4080 H   0  0  0  0  0  0  0  0  0  0  0  0
    3.7113   -4.9673   -2.0411 H   0  0  0  0  0  0  0  0  0  0  0  0
  1  7  1  0  0  0  0
  1  2  1  0  0  0  0
  2 15  1  0  0  0  0
  3  1  1  0  0  0  0
  4  3  1  0  0  0  0
  5  3  1  0  0  0  0
  6  3  1  0  0  0  0
  7  9  1  0  0  0  0
  8  7  1  0  0  0  0
 10  7  1  0  0  0  0
 11 12  1  0  0  0  0
 11  2  1  0  0  0  0
 11 14  1  0  0  0  0
 13 11  1  0  0  0  0
 15 16  1  0  0  0  0
 15 18  1  0  0  0  0
 15 17  1  0  0  0  0
 19 20  1  0  0  0  0
 19 22  1  0  0  0  0
 19  2  1  0  0  0  0
 21 19  1  0  0  0  0
M  END
