1
q = 0.0, confidence = 0.996

 24 24  0  0  1  0  0  0  0  0999 V2000
   -0.2719   -0.8586    0.0279 Si  0  0  0  0  0  3  0  0  0  0  0  0
   -0.0302   -2.1321    1.7210 Cl  0  0  0  0  0  0  0  0  0  0  0  0
    0.0520   -2.1490   -1.6307 Cl  0  0  0  0  0  0  0  0  0  0  0  0
    1.8436    1.2931    0.0587 N   0  0  0  0  0  0  0  0  0  0  0  0
    2.7102   -0.6972    0.0129 N   0  0  0  0  0  0  0  0  0  0  0  0
    1.5166   -0.0323    0.0534 C   0  0  2  0  0  3  0  0  0  0  0  0
    3.2242    1.4635    0.0147 C   0  0  0  0  0  0  0  0  0  0  0  0
    3.7759    0.1972   -0.0189 C   0  0  0  0  0  0  0  0  0  0  0  0
    0.9303    2.4296    0.1192 C   0  0  0  0  0  0  0  0  0  0  0  0
   -0.1113    2.0559    0.1045 H   0  0  0  0  0  0  0  0  0  0  0  0
    1.0948    3.0856   -0.7562 H   0  0  0  0  0  0  0  0  0  0  0  0
    1.1040    2.9998    1.0518 H   0  0  0  0  0  0  0  0  0  0  0  0
    2.8897   -2.1460   -0.0309 C   0  0  0  0  0  0  0  0  0  0  0  0
    2.0712   -2.6331    0.5265 H   0  0  0  0  0  0  0  0  0  0  0  0
    3.8532   -2.4001    0.4449 H   0  0  0  0  0  0  0  0  0  0  0  0
    2.8753   -2.5043   -1.0779 H   0  0  0  0  0  0  0  0  0  0  0  0
    3.8668    2.8064    0.0133 C   0  0  0  0  0  0  0  0  0  0  0  0
    4.9668    2.7064   -0.0241 H   0  0  0  0  0  0  0  0  0  0  0  0
    3.6110    3.3862    0.9243 H   0  0  0  0  0  0  0  0  0  0  0  0
    3.5523    3.4127   -0.8614 H   0  0  0  0  0  0  0  0  0  0  0  0
    5.2016   -0.2299   -0.0803 C   0  0  0  0  0  0  0  0  0  0  0  0
    5.8602    0.6554   -0.1440 H   0  0  0  0  0  0  0  0  0  0  0  0
    5.4048   -0.8654   -0.9666 H   0  0  0  0  0  0  0  0  0  0  0  0
    5.5035   -0.8053    0.8200 H   0  0  0  0  0  0  0  0  0  0  0  0
  1  2  1  0  0  0  0
  3  1  1  0  0  0  0
  4  9  1  0  0  0  0
  5  6  1  0  0  0  0
  6  1  1  6  0  0  0
  6  4  1  0  0  0  0
  7  4  1  0  0  0  0
  8  5  1  0  0  0  0
  8  7  2  0  0  0  0
  9 12  1  0  0  0  0
 10  9  1  0  0  0  0
 11  9  1  0  0  0  0
 13  5  1  0  0  0  0
 13 15  1  0  0  0  0
 13 14  1  0  0  0  0
 16 13  1  0  0  0  0
 17  7  1  0  0  0  0
 17 19  1  0  0  0  0
 18 17  1  0  0  0  0
 20 17  1  0  0  0  0
 21  8  1  0  0  0  0
 21 24  1  0  0  0  0
 22 21  1  0  0  0  0
 23 21  1  0  0  0  0
M  END
