1
q = nan, confidence = 0.0

 24 24  0  0  1  0  0  0  0  0999 V2000
   -0.4487   -0.1465   -1.5698 Si  0  0  0  0  0  3  0  0  0  0  0  0
   -0.3785   -1.4141   -2.3964 H   0  0  0  0  0  0  0  0  0  0  0  0
   -0.4112    0.9542   -2.6103 H   0  0  0  0  0  0  0  0  0  0  0  0
    2.1240   -1.1036   -0.4534 N   0  0  0  0  0  0  0  0  0  0  0  0
    2.0361    1.0609   -0.5106 N   0  0  0  0  0  0  0  0  0  0  0  0
    1.3716   -0.0615   -0.9017 C   0  0  2  0  0  3  0  0  0  0  0  0
    1.7643   -2.5096   -0.5708 C   0  0  0  0  0  0  0  0  0  0  0  0
    0.9255   -2.6037   -1.2820 H   0  0  0  0  0  0  0  0  0  0  0  0
    1.4435   -2.8962    0.4159 H   0  0  0  0  0  0  0  0  0  0  0  0
    2.6271   -3.0920   -0.9458 H   0  0  0  0  0  0  0  0  0  0  0  0
    3.2468   -0.6468    0.2355 C   0  0  0  0  0  0  0  0  0  0  0  0
    4.2266   -1.5685    0.8722 C   0  0  0  0  0  0  0  0  0  0  0  0
    5.0281   -0.9935    1.3710 H   0  0  0  0  0  0  0  0  0  0  0  0
    4.7073   -2.2433    0.1334 H   0  0  0  0  0  0  0  0  0  0  0  0
    3.7401   -2.2059    1.6397 H   0  0  0  0  0  0  0  0  0  0  0  0
    3.1930    0.7333    0.1960 C   0  0  0  0  0  0  0  0  0  0  0  0
    4.1095    1.7619    0.7606 C   0  0  0  0  0  0  0  0  0  0  0  0
    4.9407    1.2777    1.3049 H   0  0  0  0  0  0  0  0  0  0  0  0
    3.5848    2.4315    1.4735 H   0  0  0  0  0  0  0  0  0  0  0  0
    4.5545    2.4023   -0.0298 H   0  0  0  0  0  0  0  0  0  0  0  0
    1.5606    2.4228   -0.7085 C   0  0  0  0  0  0  0  0  0  0  0  0
    0.7508    2.4203   -1.4578 H   0  0  0  0  0  0  0  0  0  0  0  0
    2.3879    3.0631   -1.0680 H   0  0  0  0  0  0  0  0  0  0  0  0
    1.1557    2.8339    0.2368 H   0  0  0  0  0  0  0  0  0  0  0  0
  2  1  1  0  0  0  0
  3  1  1  0  0  0  0
  4 11  1  0  0  0  0
  5 16  1  0  0  0  0
  6  1  1  1  0  0  0
  6  5  1  0  0  0  0
  6  4  1  0  0  0  0
  7  4  1  0  0  0  0
  7  9  1  0  0  0  0
  8  7  1  0  0  0  0
 10  7  1  0  0  0  0
 11 12  1  0  0  0  0
 12 13  1  0  0  0  0
 12 15  1  0  0  0  0
 14 12  1  0  0  0  0
 16 11  2  0  0  0  0
 16 17  1  0  0  0  0
 17 18  1  0  0  0  0
 17 19  1  0  0  0  0
 20 17  1  0  0  0  0
 21  5  1  0  0  0  0
 21 24  1  0  0  0  0
 22 21  1  0  0  0  0
 23 21  1  0  0  0  0
M  END
