1
q = 0.0, confidence = 0.984

 34 36  0  0  0  0  0  0  0  0999 V2000
   -0.2691    0.0583    0.0811 Si  0  0  2  0  0  3  0  0  0  0  0  0
   -1.0773   -0.2338    1.9779 N   0  3  0  0  0  0  0  0  0  0  0  0
   -1.1395    1.7208   -0.2768 C   0  0  0  0  0  0  0  0  0  0  0  0
   -0.5800    2.9399    0.1745 C   0  0  0  0  0  0  0  0  0  0  0  0
   -1.1977    4.1693   -0.0986 C   0  0  0  0  0  0  0  0  0  0  0  0
   -2.3836    4.2075   -0.8501 C   0  0  0  0  0  0  0  0  0  0  0  0
   -2.9470    3.0117   -1.3221 C   0  0  0  0  0  0  0  0  0  0  0  0
   -2.3325    1.7823   -1.0348 C   0  0  0  0  0  0  0  0  0  0  0  0
   -1.5462   -1.2482   -0.4654 C   0  0  0  0  0  0  0  0  0  0  0  0
   -1.5594   -2.0340   -1.6330 C   0  0  0  0  0  0  0  0  0  0  0  0
   -2.6038   -2.9456   -1.8641 C   0  0  0  0  0  0  0  0  0  0  0  0
   -3.6382   -3.0913   -0.9259 C   0  0  0  0  0  0  0  0  0  0  0  0
   -3.6355   -2.3236    0.2503 C   0  0  0  0  0  0  0  0  0  0  0  0
   -2.5977   -1.4062    0.4700 C   0  0  0  0  0  0  0  0  0  0  0  0
   -2.5199   -0.5073    1.6791 C   0  0  0  0  0  0  0  0  0  0  0  0
   -0.4632   -1.4366    2.6022 C   0  0  0  0  0  0  0  0  0  0  0  0
   -0.9348    0.9275    2.8880 C   0  0  0  0  0  0  0  0  0  0  0  0
    0.3602    2.9316    0.7476 H   0  0  0  0  0  0  0  0  0  0  0  0
   -0.7439    5.1039    0.2654 H   0  0  0  0  0  0  0  0  0  0  0  0
   -2.8644    5.1720   -1.0746 H   0  0  0  0  0  0  0  0  0  0  0  0
   -3.8713    3.0358   -1.9200 H   0  0  0  0  0  0  0  0  0  0  0  0
   -2.7860    0.8514   -1.4115 H   0  0  0  0  0  0  0  0  0  0  0  0
   -0.7538   -1.9367   -2.3756 H   0  0  0  0  0  0  0  0  0  0  0  0
   -2.6047   -3.5550   -2.7807 H   0  0  0  0  0  0  0  0  0  0  0  0
   -4.4477   -3.8151   -1.1053 H   0  0  0  0  0  0  0  0  0  0  0  0
   -4.4398   -2.4445    0.9937 H   0  0  0  0  0  0  0  0  0  0  0  0
   -2.9949    0.4730    1.4618 H   0  0  0  0  0  0  0  0  0  0  0  0
   -3.0150   -0.9371    2.5767 H   0  0  0  0  0  0  0  0  0  0  0  0
   -0.9831   -1.6626    3.5565 H   0  0  0  0  0  0  0  0  0  0  0  0
   -0.5546   -2.2995    1.9192 H   0  0  0  0  0  0  0  0  0  0  0  0
    0.6038   -1.2438    2.8026 H   0  0  0  0  0  0  0  0  0  0  0  0
   -1.3821    1.8214    2.4180 H   0  0  0  0  0  0  0  0  0  0  0  0
   -1.4488    0.7159    3.8492 H   0  0  0  0  0  0  0  0  0  0  0  0
    0.1369    1.1106    3.0839 H   0  0  0  0  0  0  0  0  0  0  0  0
  1  3  1  6  0  0  0
  1  2  1  0  0  0  0
  2 16  1  0  0  0  0
  2 17  1  0  0  0  0
  3  4  1  0  0  0  0
  4 18  1  0  0  0  0
  5  4  2  0  0  0  0
  5 19  1  0  0  0  0
  6  5  1  0  0  0  0
  7  8  1  0  0  0  0
  7  6  2  0  0  0  0
  8  3  2  0  0  0  0
  9  1  1  0  0  0  0
  9 14  1  0  0  0  0
 10  9  2  0  0  0  0
 11 10  1  0  0  0  0
 11 12  2  0  0  0  0
 12 13  1  0  0  0  0
 13 14  2  0  0  0  0
 13 26  1  0  0  0  0
 14 15  1  0  0  0  0
 15  2  1  0  0  0  0
 15 28  1  0  0  0  0
 16 31  1  0  0  0  0
 16 29  1  0  0  0  0
 17 34  1  0  0  0  0
 17 33  1  0  0  0  0
 20  6  1  0  0  0  0
 21  7  1  0  0  0  0
 22  8  1  0  0  0  0
 23 10  1  0  0  0  0
 24 11  1  0  0  0  0
 25 12  1  0  0  0  0
 27 15  1  0  0  0  0
 30 16  1  0  0  0  0
 32 17  1  0  0  0  0
M  CHG  1   2   1
M  END
