1
q = nan, confidence = 0.0

 29 28  0  0  0  0  0  0  0  0999 V2000
    0.7487    0.1060   -0.1259 Si  0  0  0  0  0  3  0  0  0  0  0  0
    1.4821   -1.0280    1.4334 N   0  3  0  0  0  0  0  0  0  0  0  0
    0.8675   -0.7284    2.2108 H   0  0  0  0  0  0  0  0  0  0  0  0
    1.6061   -0.5752   -1.4894 N   0  0  0  0  0  0  0  0  0  0  0  0
    1.6241    1.5851    0.2955 N   0  0  0  0  0  0  0  0  0  0  0  0
    2.8842   -0.7878    1.8472 C   0  0  0  0  0  0  0  0  0  0  0  0
    3.0803    0.2990    1.8543 H   0  0  0  0  0  0  0  0  0  0  0  0
    3.5635   -1.2623    1.1169 H   0  0  0  0  0  0  0  0  0  0  0  0
    3.0739   -1.2271    2.8478 H   0  0  0  0  0  0  0  0  0  0  0  0
    1.2107   -2.4652    1.1930 C   0  0  0  0  0  0  0  0  0  0  0  0
    0.1255   -2.6141    1.0598 H   0  0  0  0  0  0  0  0  0  0  0  0
    1.5695   -3.0785    2.0438 H   0  0  0  0  0  0  0  0  0  0  0  0
    1.7240   -2.7754    0.2637 H   0  0  0  0  0  0  0  0  0  0  0  0
    3.0547   -0.6149   -1.5805 C   0  0  0  0  0  0  0  0  0  0  0  0
    3.5183   -0.0307   -0.7634 H   0  0  0  0  0  0  0  0  0  0  0  0
    3.4093   -0.1734   -2.5417 H   0  0  0  0  0  0  0  0  0  0  0  0
    3.4558   -1.6581   -1.5425 H   0  0  0  0  0  0  0  0  0  0  0  0
    0.9412   -1.1300   -2.6571 C   0  0  0  0  0  0  0  0  0  0  0  0
   -0.1432   -0.9213   -2.6178 H   0  0  0  0  0  0  0  0  0  0  0  0
    1.0764   -2.2340   -2.7428 H   0  0  0  0  0  0  0  0  0  0  0  0
    1.3432   -0.6685   -3.5887 H   0  0  0  0  0  0  0  0  0  0  0  0
    1.2552    2.3095    1.5027 C   0  0  0  0  0  0  0  0  0  0  0  0
    0.9472    1.6252    2.3174 H   0  0  0  0  0  0  0  0  0  0  0  0
    0.4031    3.0133    1.3390 H   0  0  0  0  0  0  0  0  0  0  0  0
    2.1155    2.9100    1.8777 H   0  0  0  0  0  0  0  0  0  0  0  0
    2.0680    2.4833   -0.7627 C   0  0  0  0  0  0  0  0  0  0  0  0
    2.2283    1.9269   -1.7049 H   0  0  0  0  0  0  0  0  0  0  0  0
    3.0262    2.9810   -0.4853 H   0  0  0  0  0  0  0  0  0  0  0  0
    1.3199    3.2834   -0.9755 H   0  0  0  0  0  0  0  0  0  0  0  0
  1  5  1  0  0  0  0
  1  2  1  0  0  0  0
  2  6  1  0  0  0  0
  2  3  1  0  0  0  0
  4  1  1  0  0  0  0
  5 22  1  0  0  0  0
  6  7  1  0  0  0  0
  6  9  1  0  0  0  0
  8  6  1  0  0  0  0
 10  2  1  0  0  0  0
 10 12  1  0  0  0  0
 11 10  1  0  0  0  0
 13 10  1  0  0  0  0
 14 17  1  0  0  0  0
 14  4  1  0  0  0  0
 14 15  1  0  0  0  0
 16 14  1  0  0  0  0
 18 19  1  0  0  0  0
 18  4  1  0  0  0  0
 20 18  1  0  0  0  0
 21 18  1  0  0  0  0
 22 25  1  0  0  0  0
 22 23  1  0  0  0  0
 24 22  1  0  0  0  0
 26 28  1  0  0  0  0
 26  5  1  0  0  0  0
 27 26  1  0  0  0  0
 29 26  1  0  0  0  0
M  CHG  1   2   1
M  END
