1
q = -1.0, confidence = 0.03

 50 51  0  0  0  0  0  0  0  0999 V2000
    0.5238    1.0958    1.1274 Si  0  0  0  0  0  3  0  0  0  0  0  0
    1.8635   -1.9089    1.6267 Si  0  0  0  0  0  0  0  0  0  0  0  0
    1.7286   -3.0148   -0.4778 Si  0  0  0  0  0  0  0  0  0  0  0  0
    2.4755    0.5409    3.2647 S   0  0  0  0  0  0  0  0  0  0  0  0
    3.4893    0.1624    0.3530 S   0  0  0  0  0  0  0  0  0  0  0  0
    2.0889    0.0346    1.5253 C   0  0  0  0  0  0  0  0  0  0  0  0
    0.9540    2.8701    0.6631 C   0  0  0  0  0  0  0  0  0  0  0  0
   -0.7632    1.1321    2.5063 C   0  0  0  0  0  0  0  0  0  0  0  0
    3.4008   -2.6157    2.4833 C   0  0  0  0  0  0  0  0  0  0  0  0
    0.3453   -2.3504    2.6732 C   0  0  0  0  0  0  0  0  0  0  0  0
    2.9525   -2.4590   -1.8065 C   0  0  0  0  0  0  0  0  0  0  0  0
    2.1024   -4.8255   -0.0267 C   0  0  0  0  0  0  0  0  0  0  0  0
   -0.0407   -2.9888   -1.1867 C   0  0  0  0  0  0  0  0  0  0  0  0
   -0.3612   -2.3187   -2.4015 C   0  0  0  0  0  0  0  0  0  0  0  0
   -1.6691   -2.3629   -2.9311 C   0  0  0  0  0  0  0  0  0  0  0  0
   -2.6780   -3.0670   -2.2580 C   0  0  0  0  0  0  0  0  0  0  0  0
   -2.3797   -3.7423   -1.0614 C   0  0  0  0  0  0  0  0  0  0  0  0
   -1.0786   -3.7004   -0.5381 C   0  0  0  0  0  0  0  0  0  0  0  0
    4.3183    1.7501    0.7313 C   0  0  0  0  0  0  0  0  0  0  0  0
    4.7153    1.9077    2.1938 C   0  0  0  0  0  0  0  0  0  0  0  0
    3.5154    2.0471    3.1259 C   0  0  0  0  0  0  0  0  0  0  0  0
    0.4372   -1.8380   -2.9887 H   0  0  0  0  0  0  0  0  0  0  0  0
   -1.8855   -1.8615   -3.8865 H   0  0  0  0  0  0  0  0  0  0  0  0
   -3.6995   -3.0980   -2.6661 H   0  0  0  0  0  0  0  0  0  0  0  0
   -3.1752   -4.2743   -0.5163 H   0  0  0  0  0  0  0  0  0  0  0  0
   -0.8715   -4.2312    0.4046 H   0  0  0  0  0  0  0  0  0  0  0  0
    3.8359    2.2058    4.1756 H   0  0  0  0  0  0  0  0  0  0  0  0
    2.8897    2.9184    2.8393 H   0  0  0  0  0  0  0  0  0  0  0  0
    5.3341    2.8264    2.2915 H   0  0  0  0  0  0  0  0  0  0  0  0
    5.3427    1.0487    2.5126 H   0  0  0  0  0  0  0  0  0  0  0  0
    3.7039    2.6032    0.3768 H   0  0  0  0  0  0  0  0  0  0  0  0
    5.2014    1.7100    0.0622 H   0  0  0  0  0  0  0  0  0  0  0  0
   -0.3928    1.7852    3.3205 H   0  0  0  0  0  0  0  0  0  0  0  0
   -0.9692    0.1317    2.9275 H   0  0  0  0  0  0  0  0  0  0  0  0
   -1.7092    1.5565    2.1165 H   0  0  0  0  0  0  0  0  0  0  0  0
    1.4029    3.3695    1.5464 H   0  0  0  0  0  0  0  0  0  0  0  0
    0.0175    3.4123    0.4331 H   0  0  0  0  0  0  0  0  0  0  0  0
    1.6513    2.9714   -0.1902 H   0  0  0  0  0  0  0  0  0  0  0  0
    3.5043   -2.2058    3.5071 H   0  0  0  0  0  0  0  0  0  0  0  0
    4.3175   -2.3653    1.9150 H   0  0  0  0  0  0  0  0  0  0  0  0
    3.3120   -3.7187    2.5523 H   0  0  0  0  0  0  0  0  0  0  0  0
    0.3947   -1.8605    3.6671 H   0  0  0  0  0  0  0  0  0  0  0  0
    0.3357   -3.4468    2.8436 H   0  0  0  0  0  0  0  0  0  0  0  0
   -0.6119   -2.0773    2.1913 H   0  0  0  0  0  0  0  0  0  0  0  0
    2.8799   -3.1332   -2.6853 H   0  0  0  0  0  0  0  0  0  0  0  0
    3.9872   -2.5112   -1.4133 H   0  0  0  0  0  0  0  0  0  0  0  0
    2.7850   -1.4177   -2.1401 H   0  0  0  0  0  0  0  0  0  0  0  0
    1.9539   -5.4705   -0.9172 H   0  0  0  0  0  0  0  0  0  0  0  0
    1.4457   -5.2040    0.7824 H   0  0  0  0  0  0  0  0  0  0  0  0
    3.1534   -4.9329    0.3093 H   0  0  0  0  0  0  0  0  0  0  0  0
  1  6  1  0  0  0  0
  1  8  1  0  0  0  0
  2  9  1  0  0  0  0
  2 10  1  0  0  0  0
  3 12  1  0  0  0  0
  3  2  1  0  0  0  0
  5 19  1  0  0  0  0
  5  6  1  0  0  0  0
  6  2  1  0  0  0  0
  6  4  1  0  0  0  0
  7  1  1  0  0  0  0
  7 36  1  0  0  0  0
  8 34  1  0  0  0  0
  8 33  1  0  0  0  0
  9 41  1  0  0  0  0
  9 39  1  0  0  0  0
 10 43  1  0  0  0  0
 10 42  1  0  0  0  0
 11 46  1  0  0  0  0
 11  3  1  0  0  0  0
 12 50  1  0  0  0  0
 12 49  1  0  0  0  0
 13 18  1  0  0  0  0
 13  3  1  0  0  0  0
 14 13  2  0  0  0  0
 15 14  1  0  0  0  0
 15 16  2  0  0  0  0
 16 17  1  0  0  0  0
 17 18  2  0  0  0  0
 17 25  1  0  0  0  0
 18 26  1  0  0  0  0
 19 20  1  0  0  0  0
 20 29  1  0  0  0  0
 20 30  1  0  0  0  0
 20 21  1  0  0  0  0
 21  4  1  0  0  0  0
 21 27  1  0  0  0  0
 22 14  1  0  0  0  0
 23 15  1  0  0  0  0
 24 16  1  0  0  0  0
 28 21  1  0  0  0  0
 31 19  1  0  0  0  0
 32 19  1  0  0  0  0
 35  8  1  0  0  0  0
 37  7  1  0  0  0  0
 38  7  1  0  0  0  0
 40  9  1  0  0  0  0
 44 10  1  0  0  0  0
 45 11  1  0  0  0  0
 47 11  1  0  0  0  0
 48 12  1  0  0  0  0
M  END
