2
q = nan, confidence = 0.0

 19 18  0  0  0  0  0  0  0  0999 V2000
    4.6601    0.8412   -0.2387 Cl  0  0  0  0  0  0  0  0  0  0  0  0
    1.1707    0.7057   -0.7327 Si  0  0  0  0  0  3  0  0  0  0  0  0
    2.9587   -0.1662    0.5683 Si  0  0  0  0  0  0  0  0  0  0  0  0
    1.9029    0.4634   -2.4867 C   0  0  0  0  0  0  0  0  0  0  0  0
    1.9750   -0.6069   -2.7660 H   0  0  0  0  0  0  0  0  0  0  0  0
    2.9206    0.9003   -2.5300 H   0  0  0  0  0  0  0  0  0  0  0  0
    1.2686    0.9708   -3.2423 H   0  0  0  0  0  0  0  0  0  0  0  0
    1.1561    2.6011   -0.4869 C   0  0  0  0  0  0  0  0  0  0  0  0
    0.8347    2.9197    0.5225 H   0  0  0  0  0  0  0  0  0  0  0  0
    0.4838    3.0720   -1.2338 H   0  0  0  0  0  0  0  0  0  0  0  0
    2.1848    2.9828   -0.6558 H   0  0  0  0  0  0  0  0  0  0  0  0
    3.2280   -2.0122    0.2631 C   0  0  0  0  0  0  0  0  0  0  0  0
    3.2376   -2.2394   -0.8207 H   0  0  0  0  0  0  0  0  0  0  0  0
    2.4061   -2.6001    0.7212 H   0  0  0  0  0  0  0  0  0  0  0  0
    4.1896   -2.3459    0.7035 H   0  0  0  0  0  0  0  0  0  0  0  0
    3.1225    0.1760    2.4293 C   0  0  0  0  0  0  0  0  0  0  0  0
    3.0171    1.2563    2.6524 H   0  0  0  0  0  0  0  0  0  0  0  0
    4.1348   -0.1404    2.7548 H   0  0  0  0  0  0  0  0  0  0  0  0
    2.3814   -0.3835    3.0354 H   0  0  0  0  0  0  0  0  0  0  0  0
  1  3  1  0  0  0  0
  2  8  1  0  0  0  0
  2  3  1  0  0  0  0
  3 16  1  0  0  0  0
  4  2  1  0  0  0  0
  5  4  1  0  0  0  0
  6  4  1  0  0  0  0
  7  4  1  0  0  0  0
  8  9  1  0  0  0  0
 10  8  1  0  0  0  0
 11  8  1  0  0  0  0
 12  3  1  0  0  0  0
 12 15  1  0  0  0  0
 12 14  1  0  0  0  0
 13 12  1  0  0  0  0
 16 17  1  0  0  0  0
 16 18  1  0  0  0  0
 16 19  1  0  0  0  0
M  END
