1
q = nan, confidence = 0.0

 35 35  0  0  0  0  0  0  0  0999 V2000
    0.9944   -0.4460   -0.4187 Si  0  0  0  0  0  3  0  0  0  0  0  0
   -0.0444    1.1386    1.0046 Si  0  0  0  0  0  0  0  0  0  0  0  0
   -6.8195    1.3436   -2.4227 N   0  0  0  0  0  0  0  0  0  0  0  0
   -9.3380   -1.4195   -0.0939 N   0  0  0  0  0  0  0  0  0  0  0  0
    0.4503   -0.0828   -2.2122 C   0  0  0  0  0  0  0  0  0  0  0  0
    0.8542   -0.8548   -2.8995 H   0  0  0  0  0  0  0  0  0  0  0  0
    0.7978    0.9066   -2.5717 H   0  0  0  0  0  0  0  0  0  0  0  0
   -0.6575   -0.1067   -2.2855 H   0  0  0  0  0  0  0  0  0  0  0  0
    0.2242   -2.1247    0.0568 C   0  0  0  0  0  0  0  0  0  0  0  0
   -0.8785   -2.0858   -0.0597 H   0  0  0  0  0  0  0  0  0  0  0  0
    0.4493   -2.3972    1.1077 H   0  0  0  0  0  0  0  0  0  0  0  0
    0.6117   -2.9350   -0.5944 H   0  0  0  0  0  0  0  0  0  0  0  0
    0.5316    0.9518    2.8021 C   0  0  0  0  0  0  0  0  0  0  0  0
   -0.0859    1.5681    3.4874 H   0  0  0  0  0  0  0  0  0  0  0  0
    1.5868    1.2791    2.8997 H   0  0  0  0  0  0  0  0  0  0  0  0
    0.4891   -0.1020    3.1427 H   0  0  0  0  0  0  0  0  0  0  0  0
    0.1698    2.9456    0.4482 C   0  0  0  0  0  0  0  0  0  0  0  0
   -0.5164    3.6075    1.0159 H   0  0  0  0  0  0  0  0  0  0  0  0
   -0.0468    3.0782   -0.6313 H   0  0  0  0  0  0  0  0  0  0  0  0
    1.2045    3.2985    0.6323 H   0  0  0  0  0  0  0  0  0  0  0  0
   -1.8915    0.6996    0.8881 C   0  0  0  0  0  0  0  0  0  0  0  0
   -2.6977    1.2040   -0.1636 C   0  0  0  0  0  0  0  0  0  0  0  0
   -2.2724    1.9248   -0.8801 H   0  0  0  0  0  0  0  0  0  0  0  0
   -4.0291    0.8184   -0.3271 C   0  0  0  0  0  0  0  0  0  0  0  0
   -4.6120    1.2410   -1.1558 H   0  0  0  0  0  0  0  0  0  0  0  0
   -4.6234   -0.1098    0.5708 C   0  0  0  0  0  0  0  0  0  0  0  0
   -3.8186   -0.6201    1.6261 C   0  0  0  0  0  0  0  0  0  0  0  0
   -4.2614   -1.3387    2.3339 H   0  0  0  0  0  0  0  0  0  0  0  0
   -2.4882   -0.2260    1.7776 C   0  0  0  0  0  0  0  0  0  0  0  0
   -1.9001   -0.6475    2.6080 H   0  0  0  0  0  0  0  0  0  0  0  0
   -5.9909   -0.5802    0.4964 C   0  0  0  0  0  0  0  0  0  0  0  0
   -6.2769   -1.2972    1.2832 H   0  0  0  0  0  0  0  0  0  0  0  0
   -7.0062   -0.2863   -0.3957 C   0  0  0  0  0  0  0  0  0  0  0  0
   -6.8922    0.6114   -1.5063 C   0  0  0  0  0  0  0  0  0  0  0  0
   -8.2895   -0.9081   -0.2322 C   0  0  0  0  0  0  0  0  0  0  0  0
  1  9  1  0  0  0  0
  1  2  1  0  0  0  0
  2 13  1  0  0  0  0
  3 34  3  0  0  0  0
  5  1  1  0  0  0  0
  6  5  1  0  0  0  0
  7  5  1  0  0  0  0
  8  5  1  0  0  0  0
  9 11  1  0  0  0  0
 10  9  1  0  0  0  0
 12  9  1  0  0  0  0
 13 15  1  0  0  0  0
 13 16  1  0  0  0  0
 13 14  1  0  0  0  0
 17 20  1  0  0  0  0
 17  2  1  0  0  0  0
 17 18  1  0  0  0  0
 19 17  1  0  0  0  0
 21  2  1  0  0  0  0
 21 29  1  0  0  0  0
 22 21  2  0  0  0  0
 23 22  1  0  0  0  0
 24 22  1  0  0  0  0
 24 26  2  0  0  0  0
 25 24  1  0  0  0  0
 26 27  1  0  0  0  0
 27 29  2  0  0  0  0
 27 28  1  0  0  0  0
 29 30  1  0  0  0  0
 31 26  1  0  0  0  0
 31 32  1  0  0  0  0
 33 35  1  0  0  0  0
 33 31  2  0  0  0  0
 34 33  1  0  0  0  0
 35  4  3  0  0  0  0
M  END
