1
 OpenBabel05122313063D

 52 53  0  0  1  0  0  0  0  0999 V2000
    0.4794    0.5805   -0.6571 Si  0  0  1  0  0  3  0  0  0  0  0  0
    0.4284    1.8137   -2.4059 Cl  0  0  0  0  0  0  0  0  0  0  0  0
    2.0305   -0.5614   -0.9819 C   0  0  2  0  0  0  0  0  0  0  0  0
    2.1063   -1.6461    0.0748 C   0  0  0  0  0  0  0  0  0  0  0  0
    3.2883   -1.5024    0.7604 C   0  0  0  0  0  0  0  0  0  0  0  0
    4.0228   -0.3411    0.2381 C   0  0  0  0  0  0  0  0  0  0  0  0
    3.3133    0.2266   -0.7967 C   0  0  0  0  0  0  0  0  0  0  0  0
    1.8817   -1.1523   -2.4012 C   0  0  0  0  0  0  0  0  0  0  0  0
    1.0652   -2.7007    0.2831 C   0  0  0  0  0  0  0  0  0  0  0  0
    3.8008   -2.3442    1.8878 C   0  0  0  0  0  0  0  0  0  0  0  0
    5.3501    0.0864    0.7871 C   0  0  0  0  0  0  0  0  0  0  0  0
    3.7542    1.3418   -1.6926 C   0  0  0  0  0  0  0  0  0  0  0  0
    0.3496    1.7784    0.9049 C   0  0  1  0  0  0  0  0  0  0  0  0
   -1.0491    2.3216    0.7341 C   0  0  0  0  0  0  0  0  0  0  0  0
   -1.9082    1.5623    1.5155 C   0  0  0  0  0  0  0  0  0  0  0  0
   -1.1287    0.5825    2.2760 C   0  0  0  0  0  0  0  0  0  0  0  0
    0.2187    0.7431    1.9926 C   0  0  0  0  0  0  0  0  0  0  0  0
    1.5000    2.7830    0.9666 C   0  0  0  0  0  0  0  0  0  0  0  0
   -1.3870    3.5337   -0.0739 C   0  0  0  0  0  0  0  0  0  0  0  0
   -3.3992    1.6717    1.6231 C   0  0  0  0  0  0  0  0  0  0  0  0
   -1.7440   -0.3969    3.2285 C   0  0  0  0  0  0  0  0  0  0  0  0
    1.3664    0.1512    2.7525 C   0  0  0  0  0  0  0  0  0  0  0  0
    2.7224   -1.8512   -2.5902 H   0  0  0  0  0  0  0  0  0  0  0  0
    1.8907   -0.3627   -3.1761 H   0  0  0  0  0  0  0  0  0  0  0  0
    0.9334   -1.7185   -2.5141 H   0  0  0  0  0  0  0  0  0  0  0  0
    1.4784   -3.5773    0.8191 H   0  0  0  0  0  0  0  0  0  0  0  0
    0.6416   -3.0695   -0.6743 H   0  0  0  0  0  0  0  0  0  0  0  0
    0.2045   -2.3344    0.8901 H   0  0  0  0  0  0  0  0  0  0  0  0
    3.1544   -3.2205    2.0853 H   0  0  0  0  0  0  0  0  0  0  0  0
    3.8638   -1.7598    2.8320 H   0  0  0  0  0  0  0  0  0  0  0  0
    4.8267   -2.7171    1.6843 H   0  0  0  0  0  0  0  0  0  0  0  0
    5.7532    0.9762    0.2677 H   0  0  0  0  0  0  0  0  0  0  0  0
    6.1055   -0.7240    0.7023 H   0  0  0  0  0  0  0  0  0  0  0  0
    5.2804    0.3325    1.8689 H   0  0  0  0  0  0  0  0  0  0  0  0
    4.7488    1.7255   -1.3952 H   0  0  0  0  0  0  0  0  0  0  0  0
    3.0463    2.1954   -1.7023 H   0  0  0  0  0  0  0  0  0  0  0  0
    3.8312    1.0043   -2.7494 H   0  0  0  0  0  0  0  0  0  0  0  0
    1.3806    3.4396    1.8536 H   0  0  0  0  0  0  0  0  0  0  0  0
    1.5165    3.4261    0.0648 H   0  0  0  0  0  0  0  0  0  0  0  0
    2.4828    2.2774    1.0362 H   0  0  0  0  0  0  0  0  0  0  0  0
   -1.0612    3.4429   -1.1291 H   0  0  0  0  0  0  0  0  0  0  0  0
   -0.8816    4.4353    0.3376 H   0  0  0  0  0  0  0  0  0  0  0  0
   -2.4757    3.7308   -0.0671 H   0  0  0  0  0  0  0  0  0  0  0  0
   -3.8003    2.5113    1.0247 H   0  0  0  0  0  0  0  0  0  0  0  0
   -3.7165    1.8224    2.6765 H   0  0  0  0  0  0  0  0  0  0  0  0
   -3.8950    0.7404    1.2709 H   0  0  0  0  0  0  0  0  0  0  0  0
   -0.9907   -1.0798    3.6656 H   0  0  0  0  0  0  0  0  0  0  0  0
   -2.5165   -1.0146    2.7216 H   0  0  0  0  0  0  0  0  0  0  0  0
   -2.2573    0.1206    4.0674 H   0  0  0  0  0  0  0  0  0  0  0  0
    1.4302    0.6144    3.7620 H   0  0  0  0  0  0  0  0  0  0  0  0
    2.3306    0.3263    2.2443 H   0  0  0  0  0  0  0  0  0  0  0  0
    1.2657   -0.9419    2.9040 H   0  0  0  0  0  0  0  0  0  0  0  0
  1  2  1  6  0  0  0
  1 13  1  0  0  0  0
  3  8  1  6  0  0  0
  3  7  1  0  0  0  0
  3  1  1  0  0  0  0
  3  4  1  0  0  0  0
  4  9  1  0  0  0  0
  4  5  2  0  0  0  0
  5 10  1  0  0  0  0
  6  5  1  0  0  0  0
  6 11  1  0  0  0  0
  7  6  2  0  0  0  0
  9 26  1  0  0  0  0
  9 28  1  0  0  0  0
 10 29  1  0  0  0  0
 10 30  1  0  0  0  0
 11 34  1  0  0  0  0
 12 35  1  0  0  0  0
 12  7  1  0  0  0  0
 13 18  1  1  0  0  0
 13 17  1  0  0  0  0
 14 13  1  0  0  0  0
 14 15  2  0  0  0  0
 15 20  1  0  0  0  0
 15 16  1  0  0  0  0
 16 21  1  0  0  0  0
 17 16  2  0  0  0  0
 17 22  1  0  0  0  0
 18 40  1  0  0  0  0
 18 38  1  0  0  0  0
 19 43  1  0  0  0  0
 19 42  1  0  0  0  0
 19 14  1  0  0  0  0
 20 45  1  0  0  0  0
 21 47  1  0  0  0  0
 21 49  1  0  0  0  0
 22 52  1  0  0  0  0
 22 50  1  0  0  0  0
 23  8  1  0  0  0  0
 24  8  1  0  0  0  0
 25  8  1  0  0  0  0
 27  9  1  0  0  0  0
 31 10  1  0  0  0  0
 32 11  1  0  0  0  0
 33 11  1  0  0  0  0
 36 12  1  0  0  0  0
 37 12  1  0  0  0  0
 39 18  1  0  0  0  0
 41 19  1  0  0  0  0
 44 20  1  0  0  0  0
 46 20  1  0  0  0  0
 48 21  1  0  0  0  0
 51 22  1  0  0  0  0
M  END
