2
 OpenBabel05122313063D

 51 53  0  0  1  0  0  0  0  0999 V2000
    0.2359    0.5584    0.0085 P   0  0  0  0  0  0  0  0  0  0  0  0
   -0.7678   -2.1729   -0.6689 Si  0  0  0  0  0  3  0  0  0  0  0  0
    0.9505   -1.7606   -1.2276 N   0  0  0  0  0  0  0  0  0  0  0  0
    5.1054   -0.8113   -1.1729 N   0  0  0  0  0  0  0  0  0  0  0  0
   -0.4704   -3.4048    0.7679 C   0  0  0  0  0  0  0  0  0  0  0  0
   -1.4827   -3.2308   -2.0843 C   0  0  0  0  0  0  0  0  0  0  0  0
    0.5797    2.3299   -0.3790 C   0  0  0  0  0  0  0  0  0  0  0  0
   -0.3231    3.0225   -1.2129 C   0  0  0  0  0  0  0  0  0  0  0  0
   -0.0525    4.3352   -1.6269 C   0  0  0  0  0  0  0  0  0  0  0  0
    1.1248    4.9769   -1.2112 C   0  0  0  0  0  0  0  0  0  0  0  0
    2.0341    4.2942   -0.3863 C   0  0  0  0  0  0  0  0  0  0  0  0
    1.7681    2.9803    0.0266 C   0  0  0  0  0  0  0  0  0  0  0  0
    1.1334    0.3027    1.5980 C   0  0  0  0  0  0  0  0  0  0  0  0
    1.0847    1.2663    2.6290 C   0  0  0  0  0  0  0  0  0  0  0  0
    1.7094    1.0317    3.8635 C   0  0  0  0  0  0  0  0  0  0  0  0
    2.4015   -0.1693    4.0857 C   0  0  0  0  0  0  0  0  0  0  0  0
    2.4717   -1.1253    3.0607 C   0  0  0  0  0  0  0  0  0  0  0  0
    1.8451   -0.8959    1.8261 C   0  0  0  0  0  0  0  0  0  0  0  0
    1.3213   -0.3459   -1.3240 C   0  0  2  0  0  0  0  0  0  0  0  0
    2.7846   -0.0729   -1.2268 C   0  0  0  0  0  0  0  0  0  0  0  0
    3.7301   -1.0727   -1.2039 C   0  0  0  0  0  0  0  0  0  0  0  0
    3.2784   -2.4606   -1.2791 C   0  0  0  0  0  0  0  0  0  0  0  0
    1.9335   -2.7147   -1.2905 C   0  0  0  0  0  0  0  0  0  0  0  0
    5.5303    0.5691   -1.2222 C   0  0  0  0  0  0  0  0  0  0  0  0
    5.9693   -1.6640   -0.3758 C   0  0  0  0  0  0  0  0  0  0  0  0
    0.3299   -4.1256    0.5006 H   0  0  0  0  0  0  0  0  0  0  0  0
   -0.1619   -2.8909    1.6994 H   0  0  0  0  0  0  0  0  0  0  0  0
   -1.3811   -3.9969    0.9804 H   0  0  0  0  0  0  0  0  0  0  0  0
   -0.8496   -4.1212   -2.2833 H   0  0  0  0  0  0  0  0  0  0  0  0
   -2.5001   -3.5980   -1.8344 H   0  0  0  0  0  0  0  0  0  0  0  0
   -1.5551   -2.6376   -3.0174 H   0  0  0  0  0  0  0  0  0  0  0  0
   -1.2438    2.5157   -1.5346 H   0  0  0  0  0  0  0  0  0  0  0  0
   -0.7688    4.8603   -2.2773 H   0  0  0  0  0  0  0  0  0  0  0  0
    1.3356    6.0090   -1.5305 H   0  0  0  0  0  0  0  0  0  0  0  0
    2.9622    4.7891   -0.0606 H   0  0  0  0  0  0  0  0  0  0  0  0
    2.4890    2.4547    0.6699 H   0  0  0  0  0  0  0  0  0  0  0  0
    0.5658    2.2205    2.4601 H   0  0  0  0  0  0  0  0  0  0  0  0
    1.6559    1.7953    4.6548 H   0  0  0  0  0  0  0  0  0  0  0  0
    2.8912   -0.3558    5.0536 H   0  0  0  0  0  0  0  0  0  0  0  0
    3.0248   -2.0644    3.2159 H   0  0  0  0  0  0  0  0  0  0  0  0
    1.9219   -1.6555    1.0384 H   0  0  0  0  0  0  0  0  0  0  0  0
    0.8739    0.1140   -2.2443 H   0  0  0  0  0  0  0  0  0  0  0  0
    3.0725    0.9846   -1.2027 H   0  0  0  0  0  0  0  0  0  0  0  0
    3.9833   -3.2905   -1.4024 H   0  0  0  0  0  0  0  0  0  0  0  0
    1.5700   -3.7541   -1.3434 H   0  0  0  0  0  0  0  0  0  0  0  0
    5.0570    1.0861   -2.0808 H   0  0  0  0  0  0  0  0  0  0  0  0
    5.2728    1.1436   -0.2955 H   0  0  0  0  0  0  0  0  0  0  0  0
    6.6296    0.6099   -1.3543 H   0  0  0  0  0  0  0  0  0  0  0  0
    7.0132   -1.6002   -0.7473 H   0  0  0  0  0  0  0  0  0  0  0  0
    5.9724   -1.3769    0.7063 H   0  0  0  0  0  0  0  0  0  0  0  0
    5.6499   -2.7191   -0.4358 H   0  0  0  0  0  0  0  0  0  0  0  0
  1 13  1  0  0  0  0
  2  5  1  0  0  0  0
  3  2  1  0  0  0  0
  4 25  1  0  0  0  0
  5 28  1  0  0  0  0
  5 27  1  0  0  0  0
  6 30  1  0  0  0  0
  6  2  1  0  0  0  0
  7  1  1  0  0  0  0
  7 12  1  0  0  0  0
  8  7  2  0  0  0  0
  9  8  1  0  0  0  0
  9 10  2  0  0  0  0
 10 11  1  0  0  0  0
 11 35  1  0  0  0  0
 11 12  2  0  0  0  0
 12 36  1  0  0  0  0
 13 18  2  0  0  0  0
 13 14  1  0  0  0  0
 14 15  2  0  0  0  0
 15 16  1  0  0  0  0
 15 38  1  0  0  0  0
 16 39  1  0  0  0  0
 17 40  1  0  0  0  0
 17 16  2  0  0  0  0
 18 17  1  0  0  0  0
 19 42  1  6  0  0  0
 19  3  1  0  0  0  0
 19 20  1  0  0  0  0
 19  1  1  0  0  0  0
 20 21  2  0  0  0  0
 20 43  1  0  0  0  0
 21  4  1  0  0  0  0
 22 21  1  0  0  0  0
 23 22  2  0  0  0  0
 23  3  1  0  0  0  0
 24  4  1  0  0  0  0
 24 47  1  0  0  0  0
 25 50  1  0  0  0  0
 26  5  1  0  0  0  0
 29  6  1  0  0  0  0
 31  6  1  0  0  0  0
 32  8  1  0  0  0  0
 33  9  1  0  0  0  0
 34 10  1  0  0  0  0
 37 14  1  0  0  0  0
 41 18  1  0  0  0  0
 44 22  1  0  0  0  0
 45 23  1  0  0  0  0
 46 24  1  0  0  0  0
 48 24  1  0  0  0  0
 49 25  1  0  0  0  0
 51 25  1  0  0  0  0
M  END
