1
 OpenBabel05122313063D

 32 33  0  0  0  0  0  0  0  0999 V2000
   -0.6503   -0.6426    1.0641 Si  0  0  0  0  0  3  0  0  0  0  0  0
   -2.0485    0.1637    0.1582 N   0  0  0  0  0  0  0  0  0  0  0  0
   -0.6433    0.1764    2.7973 C   0  0  0  0  0  0  0  0  0  0  0  0
   -1.3392   -2.3802    1.4489 C   0  0  0  0  0  0  0  0  0  0  0  0
   -1.9470    1.4342   -0.4331 C   0  0  0  0  0  0  0  0  0  0  0  0
   -2.7512    1.7721   -1.5555 C   0  0  0  0  0  0  0  0  0  0  0  0
   -2.6210    3.0145   -2.1858 C   0  0  0  0  0  0  0  0  0  0  0  0
   -1.6906    3.9630   -1.7230 C   0  0  0  0  0  0  0  0  0  0  0  0
   -0.9086    3.6487   -0.6012 C   0  0  0  0  0  0  0  0  0  0  0  0
   -1.0386    2.4092    0.0418 C   0  0  0  0  0  0  0  0  0  0  0  0
   -3.3820   -0.3244    0.3139 C   0  0  0  0  0  0  0  0  0  0  0  0
   -4.3045    0.4212    1.0852 C   0  0  0  0  0  0  0  0  0  0  0  0
   -5.6183   -0.0283    1.2662 C   0  0  0  0  0  0  0  0  0  0  0  0
   -6.0403   -1.2367    0.6858 C   0  0  0  0  0  0  0  0  0  0  0  0
   -5.1348   -1.9813   -0.0852 C   0  0  0  0  0  0  0  0  0  0  0  0
   -3.8212   -1.5271   -0.2778 C   0  0  0  0  0  0  0  0  0  0  0  0
   -0.2366    1.2067    2.8228 H   0  0  0  0  0  0  0  0  0  0  0  0
   -1.6838    0.2106    3.1833 H   0  0  0  0  0  0  0  0  0  0  0  0
   -0.0418   -0.4371    3.5001 H   0  0  0  0  0  0  0  0  0  0  0  0
   -0.6150   -2.8911    2.1150 H   0  0  0  0  0  0  0  0  0  0  0  0
   -2.3148   -2.3290    1.9725 H   0  0  0  0  0  0  0  0  0  0  0  0
   -1.4717   -3.0152    0.5518 H   0  0  0  0  0  0  0  0  0  0  0  0
   -3.4785    1.0361   -1.9284 H   0  0  0  0  0  0  0  0  0  0  0  0
   -3.2510    3.2433   -3.0596 H   0  0  0  0  0  0  0  0  0  0  0  0
   -1.5904    4.9382   -2.2219 H   0  0  0  0  0  0  0  0  0  0  0  0
   -0.1944    4.3859   -0.2010 H   0  0  0  0  0  0  0  0  0  0  0  0
   -0.4533    2.1959    0.9444 H   0  0  0  0  0  0  0  0  0  0  0  0
   -3.9664    1.3639    1.5411 H   0  0  0  0  0  0  0  0  0  0  0  0
   -6.3180    0.5658    1.8744 H   0  0  0  0  0  0  0  0  0  0  0  0
   -7.0708   -1.5939    0.8323 H   0  0  0  0  0  0  0  0  0  0  0  0
   -5.4553   -2.9248   -0.5536 H   0  0  0  0  0  0  0  0  0  0  0  0
   -3.1225   -2.1037   -0.8960 H   0  0  0  0  0  0  0  0  0  0  0  0
  1  4  1  0  0  0  0
  1  3  1  0  0  0  0
  2 11  1  0  0  0  0
  2  1  1  0  0  0  0
  3 17  1  0  0  0  0
  3 18  1  0  0  0  0
  3 19  1  0  0  0  0
  4 21  1  0  0  0  0
  4 20  1  0  0  0  0
  5 10  1  0  0  0  0
  5  2  1  0  0  0  0
  6  5  2  0  0  0  0
  7  8  2  0  0  0  0
  7  6  1  0  0  0  0
  8  9  1  0  0  0  0
  9 26  1  0  0  0  0
  9 10  2  0  0  0  0
 10 27  1  0  0  0  0
 11 12  1  0  0  0  0
 12 13  2  0  0  0  0
 12 28  1  0  0  0  0
 13 29  1  0  0  0  0
 14 30  1  0  0  0  0
 14 13  1  0  0  0  0
 15 14  2  0  0  0  0
 16 15  1  0  0  0  0
 16 11  2  0  0  0  0
 22  4  1  0  0  0  0
 23  6  1  0  0  0  0
 24  7  1  0  0  0  0
 25  8  1  0  0  0  0
 31 15  1  0  0  0  0
 32 16  1  0  0  0  0
M  END
