1
 OpenBabel05122313063D

 27 28  0  0  0  0  0  0  0  0999 V2000
    2.0226   -0.8434   -0.2603 Si  0  0  0  0  0  3  0  0  0  0  0  0
    3.4302   -1.7407   -1.2205 C   0  0  0  0  0  0  0  0  0  0  0  0
    4.7486   -1.7945   -0.4279 C   0  0  0  0  0  0  0  0  0  0  0  0
    4.6190   -2.4680    0.9454 C   0  0  0  0  0  0  0  0  0  0  0  0
    3.7007   -1.7192    1.9208 C   0  0  0  0  0  0  0  0  0  0  0  0
    2.2297   -1.6483    1.4688 C   0  0  0  0  0  0  0  0  0  0  0  0
    2.5932    0.9762   -0.0343 C   0  0  0  0  0  0  0  0  0  0  0  0
    2.5408    1.5965    1.2371 C   0  0  0  0  0  0  0  0  0  0  0  0
    2.8610    2.9528    1.4113 C   0  0  0  0  0  0  0  0  0  0  0  0
    3.2557    3.7311    0.3116 C   0  0  0  0  0  0  0  0  0  0  0  0
    3.3444    3.1334   -0.9571 C   0  0  0  0  0  0  0  0  0  0  0  0
    3.0199    1.7774   -1.1202 C   0  0  0  0  0  0  0  0  0  0  0  0
    2.2271    1.0112    2.1138 H   0  0  0  0  0  0  0  0  0  0  0  0
    2.8006    3.4047    2.4141 H   0  0  0  0  0  0  0  0  0  0  0  0
    3.5052    4.7953    0.4431 H   0  0  0  0  0  0  0  0  0  0  0  0
    3.6698    3.7283   -1.8250 H   0  0  0  0  0  0  0  0  0  0  0  0
    3.1033    1.3384   -2.1268 H   0  0  0  0  0  0  0  0  0  0  0  0
    3.6101   -1.2824   -2.2155 H   0  0  0  0  0  0  0  0  0  0  0  0
    3.0701   -2.7751   -1.4244 H   0  0  0  0  0  0  0  0  0  0  0  0
    5.1319   -0.7590   -0.2832 H   0  0  0  0  0  0  0  0  0  0  0  0
    5.5257   -2.3251   -1.0224 H   0  0  0  0  0  0  0  0  0  0  0  0
    4.2380   -3.5064    0.8082 H   0  0  0  0  0  0  0  0  0  0  0  0
    5.6287   -2.5691    1.3985 H   0  0  0  0  0  0  0  0  0  0  0  0
    3.7582   -2.2047    2.9208 H   0  0  0  0  0  0  0  0  0  0  0  0
    4.1005   -0.6901    2.0634 H   0  0  0  0  0  0  0  0  0  0  0  0
    1.8096   -2.6757    1.4108 H   0  0  0  0  0  0  0  0  0  0  0  0
    1.6202   -1.1253    2.2313 H   0  0  0  0  0  0  0  0  0  0  0  0
  1  7  1  0  0  0  0
  1  6  1  0  0  0  0
  2  3  1  0  0  0  0
  2  1  1  0  0  0  0
  3 20  1  0  0  0  0
  3  4  1  0  0  0  0
  4 23  1  0  0  0  0
  4  5  1  0  0  0  0
  5 25  1  0  0  0  0
  5 24  1  0  0  0  0
  6  5  1  0  0  0  0
  6 27  1  0  0  0  0
  7  8  1  0  0  0  0
  8  9  2  0  0  0  0
  8 13  1  0  0  0  0
  9 14  1  0  0  0  0
 10 15  1  0  0  0  0
 10  9  1  0  0  0  0
 11 10  2  0  0  0  0
 12 11  1  0  0  0  0
 12  7  2  0  0  0  0
 16 11  1  0  0  0  0
 17 12  1  0  0  0  0
 18  2  1  0  0  0  0
 19  2  1  0  0  0  0
 21  3  1  0  0  0  0
 22  4  1  0  0  0  0
 26  6  1  0  0  0  0
M  END
