2
 OpenBabel05122313063D

 58 59  0  0  0  0  0  0  0  0999 V2000
   -2.0246   -1.2638   -0.9205 P   0  0  0  0  0  4  0  0  0  0  0  0
    0.5480    0.3470    0.0937 Si  0  0  0  0  0  3  0  0  0  0  0  0
   -2.0683   -2.0493   -2.3861 N   0  0  0  0  0  0  0  0  0  0  0  0
   -3.1964   -0.0971   -0.8267 N   0  0  0  0  0  0  0  0  0  0  0  0
   -2.3193   -2.3294    0.3236 N   0  0  0  0  0  0  0  0  0  0  0  0
   -0.5832   -0.6059   -0.9146 O   0  0  0  0  0  0  0  0  0  0  0  0
    1.2193   -0.9378    1.3017 C   0  0  0  0  0  0  0  0  0  0  0  0
    1.1020   -2.3279    1.0913 C   0  0  0  0  0  0  0  0  0  0  0  0
    0.5484   -2.7036    0.2159 H   0  0  0  0  0  0  0  0  0  0  0  0
    1.6732   -3.2514    1.9811 C   0  0  0  0  0  0  0  0  0  0  0  0
    1.5645   -4.3314    1.7917 H   0  0  0  0  0  0  0  0  0  0  0  0
    2.3925   -2.8218    3.1143 C   0  0  0  0  0  0  0  0  0  0  0  0
    2.5222   -1.4300    3.3210 C   0  0  0  0  0  0  0  0  0  0  0  0
    3.0814   -1.0651    4.1973 H   0  0  0  0  0  0  0  0  0  0  0  0
    1.9525   -0.5083    2.4339 C   0  0  0  0  0  0  0  0  0  0  0  0
    2.0785    0.5695    2.6309 H   0  0  0  0  0  0  0  0  0  0  0  0
    3.0105   -3.8026    4.0752 C   0  0  0  0  0  0  0  0  0  0  0  0
    2.6102   -3.6643    5.1009 H   0  0  0  0  0  0  0  0  0  0  0  0
    4.1089   -3.6589    4.1418 H   0  0  0  0  0  0  0  0  0  0  0  0
    2.8219   -4.8503    3.7733 H   0  0  0  0  0  0  0  0  0  0  0  0
   -0.5417    1.5602    1.0550 C   0  0  0  0  0  0  0  0  0  0  0  0
   -0.9383    1.2774    2.3840 C   0  0  0  0  0  0  0  0  0  0  0  0
   -0.5821    0.3606    2.8783 H   0  0  0  0  0  0  0  0  0  0  0  0
   -1.7701    2.1501    3.1003 C   0  0  0  0  0  0  0  0  0  0  0  0
   -2.0579    1.8989    4.1336 H   0  0  0  0  0  0  0  0  0  0  0  0
   -2.2338    3.3521    2.5276 C   0  0  0  0  0  0  0  0  0  0  0  0
   -1.8261    3.6480    1.2092 C   0  0  0  0  0  0  0  0  0  0  0  0
   -2.1596    4.5869    0.7390 H   0  0  0  0  0  0  0  0  0  0  0  0
   -0.9952    2.7770    0.4933 C   0  0  0  0  0  0  0  0  0  0  0  0
   -0.7001    3.0638   -0.5267 H   0  0  0  0  0  0  0  0  0  0  0  0
   -3.0929    4.3107    3.3080 C   0  0  0  0  0  0  0  0  0  0  0  0
   -3.6427    3.8014    4.1228 H   0  0  0  0  0  0  0  0  0  0  0  0
   -3.8257    4.8275    2.6576 H   0  0  0  0  0  0  0  0  0  0  0  0
   -2.4673    5.0997    3.7780 H   0  0  0  0  0  0  0  0  0  0  0  0
   -0.8780   -2.5399   -3.0745 C   0  0  0  0  0  0  0  0  0  0  0  0
   -0.8213   -3.6513   -3.0599 H   0  0  0  0  0  0  0  0  0  0  0  0
    0.0280   -2.1255   -2.5987 H   0  0  0  0  0  0  0  0  0  0  0  0
   -0.8959   -2.2097   -4.1349 H   0  0  0  0  0  0  0  0  0  0  0  0
   -3.3511   -2.4222   -2.9751 C   0  0  0  0  0  0  0  0  0  0  0  0
   -3.3888   -2.0985   -4.0368 H   0  0  0  0  0  0  0  0  0  0  0  0
   -4.1812   -1.9261   -2.4381 H   0  0  0  0  0  0  0  0  0  0  0  0
   -3.5209   -3.5214   -2.9416 H   0  0  0  0  0  0  0  0  0  0  0  0
   -3.0659    1.1100   -1.6448 C   0  0  0  0  0  0  0  0  0  0  0  0
   -3.8509    1.1340   -2.4314 H   0  0  0  0  0  0  0  0  0  0  0  0
   -2.0763    1.1506   -2.1331 H   0  0  0  0  0  0  0  0  0  0  0  0
   -3.1664    2.0118   -1.0073 H   0  0  0  0  0  0  0  0  0  0  0  0
   -4.4590   -0.2284   -0.1051 C   0  0  0  0  0  0  0  0  0  0  0  0
   -4.5240    0.5221    0.7116 H   0  0  0  0  0  0  0  0  0  0  0  0
   -4.5578   -1.2388    0.3283 H   0  0  0  0  0  0  0  0  0  0  0  0
   -5.3116   -0.0638   -0.7986 H   0  0  0  0  0  0  0  0  0  0  0  0
   -2.3491   -1.8693    1.7134 C   0  0  0  0  0  0  0  0  0  0  0  0
   -3.2549   -2.2579    2.2253 H   0  0  0  0  0  0  0  0  0  0  0  0
   -2.3686   -0.7650    1.7569 H   0  0  0  0  0  0  0  0  0  0  0  0
   -1.4480   -2.2190    2.2612 H   0  0  0  0  0  0  0  0  0  0  0  0
   -2.2553   -3.7783    0.1523 C   0  0  0  0  0  0  0  0  0  0  0  0
   -1.3631   -4.2018    0.6632 H   0  0  0  0  0  0  0  0  0  0  0  0
   -2.2064   -4.0436   -0.9187 H   0  0  0  0  0  0  0  0  0  0  0  0
   -3.1603   -4.2521    0.5882 H   0  0  0  0  0  0  0  0  0  0  0  0
  1  6  1  0  0  0  0
  1  4  1  0  0  0  0
  1  5  1  0  0  0  0
  2 21  1  0  0  0  0
  2  7  1  0  0  0  0
  3  1  1  0  0  0  0
  4 47  1  0  0  0  0
  5 51  1  0  0  0  0
  6  2  1  0  0  0  0
  7 15  1  0  0  0  0
  8  7  2  0  0  0  0
  8 10  1  0  0  0  0
  9  8  1  0  0  0  0
 10 12  2  0  0  0  0
 11 10  1  0  0  0  0
 12 13  1  0  0  0  0
 12 17  1  0  0  0  0
 13 14  1  0  0  0  0
 15 16  1  0  0  0  0
 15 13  2  0  0  0  0
 17 19  1  0  0  0  0
 17 18  1  0  0  0  0
 20 17  1  0  0  0  0
 21 22  1  0  0  0  0
 22 23  1  0  0  0  0
 22 24  2  0  0  0  0
 24 25  1  0  0  0  0
 26 24  1  0  0  0  0
 26 31  1  0  0  0  0
 27 26  2  0  0  0  0
 28 27  1  0  0  0  0
 29 21  2  0  0  0  0
 29 27  1  0  0  0  0
 30 29  1  0  0  0  0
 31 34  1  0  0  0  0
 31 32  1  0  0  0  0
 33 31  1  0  0  0  0
 35 36  1  0  0  0  0
 35 37  1  0  0  0  0
 35  3  1  0  0  0  0
 38 35  1  0  0  0  0
 39 42  1  0  0  0  0
 39 41  1  0  0  0  0
 39  3  1  0  0  0  0
 40 39  1  0  0  0  0
 43 46  1  0  0  0  0
 43  4  1  0  0  0  0
 44 43  1  0  0  0  0
 45 43  1  0  0  0  0
 47 49  1  0  0  0  0
 47 48  1  0  0  0  0
 50 47  1  0  0  0  0
 51 53  1  0  0  0  0
 51 52  1  0  0  0  0
 51 54  1  0  0  0  0
 55  5  1  0  0  0  0
 55 58  1  0  0  0  0
 55 56  1  0  0  0  0
 57 55  1  0  0  0  0
M  END
