1
 OpenBabel05122313063D

 22 22  0  0  0  0  0  0  0  0999 V2000
   -1.4046   -0.8170    0.6503 Si  0  0  0  0  0  3  0  0  0  0  0  0
   -2.5289   -0.7294   -1.3869 P   0  0  0  0  0  0  0  0  0  0  0  0
   -1.9378    0.5238   -1.7741 H   0  0  0  0  0  0  0  0  0  0  0  0
   -2.2328   -2.2412    1.6276 C   0  0  0  0  0  0  0  0  0  0  0  0
   -2.1165   -3.2491    1.1925 H   0  0  0  0  0  0  0  0  0  0  0  0
   -3.3184   -2.0302    1.7245 H   0  0  0  0  0  0  0  0  0  0  0  0
   -1.8042   -2.2524    2.6521 H   0  0  0  0  0  0  0  0  0  0  0  0
   -2.0390    0.6797    1.6597 C   0  0  0  0  0  0  0  0  0  0  0  0
   -1.4454    0.8118    2.5874 H   0  0  0  0  0  0  0  0  0  0  0  0
   -3.0892    0.4691    1.9477 H   0  0  0  0  0  0  0  0  0  0  0  0
   -2.0339    1.6341    1.1051 H   0  0  0  0  0  0  0  0  0  0  0  0
   -4.1444   -0.0524   -0.8135 C   0  0  0  0  0  0  0  0  0  0  0  0
   -5.1365   -0.9636   -0.3830 C   0  0  0  0  0  0  0  0  0  0  0  0
   -4.9333   -2.0459   -0.4279 H   0  0  0  0  0  0  0  0  0  0  0  0
   -6.3732   -0.5078    0.0960 C   0  0  0  0  0  0  0  0  0  0  0  0
   -7.1293   -1.2346    0.4318 H   0  0  0  0  0  0  0  0  0  0  0  0
   -6.6520    0.8681    0.1389 C   0  0  0  0  0  0  0  0  0  0  0  0
   -7.6240    1.2263    0.5106 H   0  0  0  0  0  0  0  0  0  0  0  0
   -5.6800    1.7826   -0.2991 C   0  0  0  0  0  0  0  0  0  0  0  0
   -5.8871    2.8639   -0.2683 H   0  0  0  0  0  0  0  0  0  0  0  0
   -4.4377    1.3293   -0.7654 C   0  0  0  0  0  0  0  0  0  0  0  0
   -3.6752    2.0578   -1.0810 H   0  0  0  0  0  0  0  0  0  0  0  0
  1  4  1  0  0  0  0
  1  8  1  0  0  0  0
  2 12  1  0  0  0  0
  2  1  1  0  0  0  0
  3  2  1  0  0  0  0
  4  6  1  0  0  0  0
  4  7  1  0  0  0  0
  5  4  1  0  0  0  0
  8 10  1  0  0  0  0
  8  9  1  0  0  0  0
 11  8  1  0  0  0  0
 12 21  2  0  0  0  0
 12 13  1  0  0  0  0
 13 15  2  0  0  0  0
 14 13  1  0  0  0  0
 15 17  1  0  0  0  0
 15 16  1  0  0  0  0
 17 18  1  0  0  0  0
 19 20  1  0  0  0  0
 19 17  2  0  0  0  0
 21 19  1  0  0  0  0
 22 21  1  0  0  0  0
M  END
