1
 OpenBabel05122313063D

 43 44  0  0  0  0  0  0  0  0999 V2000
   -1.8718   -1.9078    0.6009 Si  0  0  0  0  0  3  0  0  0  0  0  0
   -3.1343   -3.2535    0.1349 C   0  0  0  0  0  0  0  0  0  0  0  0
   -3.4571   -3.1898   -0.9216 H   0  0  0  0  0  0  0  0  0  0  0  0
   -4.0344   -3.1548    0.7764 H   0  0  0  0  0  0  0  0  0  0  0  0
   -2.7043   -4.2634    0.2988 H   0  0  0  0  0  0  0  0  0  0  0  0
   -1.2575   -2.3461    2.3414 C   0  0  0  0  0  0  0  0  0  0  0  0
   -0.9088   -3.3984    2.3853 H   0  0  0  0  0  0  0  0  0  0  0  0
   -2.0831   -2.2277    3.0732 H   0  0  0  0  0  0  0  0  0  0  0  0
   -0.4198   -1.6957    2.6611 H   0  0  0  0  0  0  0  0  0  0  0  0
   -0.5000   -2.1368   -0.4495 O   0  0  0  0  0  0  0  0  0  0  0  0
    0.6180   -2.8796   -0.1679 C   0  0  0  0  0  0  0  0  0  0  0  0
    0.4824   -4.3497   -0.4464 C   0  0  0  0  0  0  0  0  0  0  0  0
    1.4375   -4.8855   -0.2902 H   0  0  0  0  0  0  0  0  0  0  0  0
    0.1444   -4.5148   -1.4914 H   0  0  0  0  0  0  0  0  0  0  0  0
   -0.2874   -4.8084    0.2114 H   0  0  0  0  0  0  0  0  0  0  0  0
    1.7517   -2.2944    0.2947 C   0  0  0  0  0  0  0  0  0  0  0  0
    2.6342   -2.9336    0.4529 H   0  0  0  0  0  0  0  0  0  0  0  0
    1.8826   -0.8290    0.5552 C   0  0  0  0  0  0  0  0  0  0  0  0
    2.3571   -0.6191    1.5377 H   0  0  0  0  0  0  0  0  0  0  0  0
    0.8809   -0.3573    0.5396 H   0  0  0  0  0  0  0  0  0  0  0  0
    2.8858    0.0219   -0.8003 P   0  0  0  0  0  0  0  0  0  0  0  0
    2.9401    1.7690   -0.1952 C   0  0  0  0  0  0  0  0  0  0  0  0
    3.7582    2.6800   -0.9039 C   0  0  0  0  0  0  0  0  0  0  0  0
    4.3882    2.3117   -1.7299 H   0  0  0  0  0  0  0  0  0  0  0  0
    3.7787    4.0400   -0.5688 C   0  0  0  0  0  0  0  0  0  0  0  0
    4.4290    4.7304   -1.1280 H   0  0  0  0  0  0  0  0  0  0  0  0
    2.9635    4.5247    0.4692 C   0  0  0  0  0  0  0  0  0  0  0  0
    2.9715    5.5949    0.7261 H   0  0  0  0  0  0  0  0  0  0  0  0
    2.1417    3.6335    1.1743 C   0  0  0  0  0  0  0  0  0  0  0  0
    1.5013    3.9973    1.9930 H   0  0  0  0  0  0  0  0  0  0  0  0
    2.1337    2.2650    0.8519 C   0  0  0  0  0  0  0  0  0  0  0  0
    1.4863    1.5926    1.4307 H   0  0  0  0  0  0  0  0  0  0  0  0
    4.5785   -0.5770   -0.3377 C   0  0  0  0  0  0  0  0  0  0  0  0
    5.0706   -1.7110   -1.0191 C   0  0  0  0  0  0  0  0  0  0  0  0
    4.4617   -2.1646   -1.8176 H   0  0  0  0  0  0  0  0  0  0  0  0
    6.3208   -2.2572   -0.6894 C   0  0  0  0  0  0  0  0  0  0  0  0
    6.6902   -3.1445   -1.2267 H   0  0  0  0  0  0  0  0  0  0  0  0
    7.1040   -1.6646    0.3136 C   0  0  0  0  0  0  0  0  0  0  0  0
    8.0893   -2.0852    0.5664 H   0  0  0  0  0  0  0  0  0  0  0  0
    6.6280   -0.5286    0.9894 C   0  0  0  0  0  0  0  0  0  0  0  0
    7.2396   -0.0590    1.7755 H   0  0  0  0  0  0  0  0  0  0  0  0
    5.3726    0.0100    0.6703 C   0  0  0  0  0  0  0  0  0  0  0  0
    5.0035    0.8983    1.2061 H   0  0  0  0  0  0  0  0  0  0  0  0
  1  6  1  0  0  0  0
  2  5  1  0  0  0  0
  2  1  1  0  0  0  0
  2  4  1  0  0  0  0
  3  2  1  0  0  0  0
  6  7  1  0  0  0  0
  6  9  1  0  0  0  0
  6  8  1  0  0  0  0
 10 11  1  0  0  0  0
 10  1  1  0  0  0  0
 11 16  2  0  0  0  0
 12 13  1  0  0  0  0
 12 11  1  0  0  0  0
 12 15  1  0  0  0  0
 14 12  1  0  0  0  0
 16 17  1  0  0  0  0
 16 18  1  0  0  0  0
 18 19  1  0  0  0  0
 20 18  1  0  0  0  0
 21 33  1  0  0  0  0
 21 22  1  0  0  0  0
 21 18  1  0  0  0  0
 22 31  1  0  0  0  0
 23 25  1  0  0  0  0
 23 22  2  0  0  0  0
 24 23  1  0  0  0  0
 25 27  2  0  0  0  0
 26 25  1  0  0  0  0
 27 28  1  0  0  0  0
 27 29  1  0  0  0  0
 29 30  1  0  0  0  0
 31 29  2  0  0  0  0
 31 32  1  0  0  0  0
 33 42  1  0  0  0  0
 34 36  1  0  0  0  0
 34 33  2  0  0  0  0
 35 34  1  0  0  0  0
 36 38  2  0  0  0  0
 37 36  1  0  0  0  0
 38 39  1  0  0  0  0
 38 40  1  0  0  0  0
 40 41  1  0  0  0  0
 42 40  2  0  0  0  0
 42 43  1  0  0  0  0
M  END
