1
 OpenBabel05122313063D

 20 20  0  0  0  0  0  0  0  0999 V2000
    1.2362   -1.3891   -0.0000 Si  0  0  0  0  0  3  0  0  0  0  0  0
    2.4660   -1.6585    1.4644 C   0  0  0  0  0  0  0  0  0  0  0  0
    0.1451   -2.9789   -0.0000 C   0  0  0  0  0  0  0  0  0  0  0  0
   -1.2658   -2.9017   -0.0000 C   0  0  0  0  0  0  0  0  0  0  0  0
   -2.0701   -4.0527   -0.0000 C   0  0  0  0  0  0  0  0  0  0  0  0
   -1.4729   -5.3237   -0.0000 C   0  0  0  0  0  0  0  0  0  0  0  0
   -0.0723   -5.4297   -0.0000 C   0  0  0  0  0  0  0  0  0  0  0  0
    0.7206   -4.2704   -0.0000 C   0  0  0  0  0  0  0  0  0  0  0  0
    3.1800   -0.8103    1.5248 H   0  0  0  0  0  0  0  0  0  0  0  0
    3.0597   -2.5815    1.2914 H   0  0  0  0  0  0  0  0  0  0  0  0
    1.9774   -1.7654    2.4527 H   0  0  0  0  0  0  0  0  0  0  0  0
   -1.7317   -1.9005   -0.0000 H   0  0  0  0  0  0  0  0  0  0  0  0
   -3.1681   -3.9602   -0.0000 H   0  0  0  0  0  0  0  0  0  0  0  0
   -2.0973   -6.2308   -0.0000 H   0  0  0  0  0  0  0  0  0  0  0  0
    0.4040   -6.4232   -0.0000 H   0  0  0  0  0  0  0  0  0  0  0  0
    1.8185   -4.3789   -0.0000 H   0  0  0  0  0  0  0  0  0  0  0  0
    2.4660   -1.6585   -1.4644 C   0  0  0  0  0  0  0  0  0  0  0  0
    3.1800   -0.8103   -1.5248 H   0  0  0  0  0  0  0  0  0  0  0  0
    3.0597   -2.5815   -1.2914 H   0  0  0  0  0  0  0  0  0  0  0  0
    1.9774   -1.7654   -2.4527 H   0  0  0  0  0  0  0  0  0  0  0  0
  1  2  1  0  0  0  0
  2  9  1  0  0  0  0
  2 11  1  0  0  0  0
  3  1  1  0  0  0  0
  3  4  2  0  0  0  0
  3  8  1  0  0  0  0
  4  5  1  0  0  0  0
  5  6  2  0  0  0  0
  6  7  1  0  0  0  0
  7  8  2  0  0  0  0
 10  2  1  0  0  0  0
 12  4  1  0  0  0  0
 13  5  1  0  0  0  0
 14  6  1  0  0  0  0
 15  7  1  0  0  0  0
 16  8  1  0  0  0  0
 17 19  1  0  0  0  0
 17  1  1  0  0  0  0
 18 17  1  0  0  0  0
 20 17  1  0  0  0  0
M  END
