1
 OpenBabel05122313063D

 20 20  0  0  0  0  0  0  0  0999 V2000
   -0.3760    1.7502   -0.2357 Si  0  0  0  0  0  3  0  0  0  0  0  0
   -1.8371    1.4430    0.7194 O   0  0  0  0  0  0  0  0  0  0  0  0
   -2.6542   -0.0743   -0.8066 N   0  0  0  0  0  0  0  0  0  0  0  0
   -0.9517    2.4833   -1.8838 C   0  0  0  0  0  0  0  0  0  0  0  0
   -1.4350    1.7196   -2.5212 H   0  0  0  0  0  0  0  0  0  0  0  0
   -0.0829    2.9087   -2.4279 H   0  0  0  0  0  0  0  0  0  0  0  0
   -1.6784    3.3019   -1.7019 H   0  0  0  0  0  0  0  0  0  0  0  0
    0.3153    3.2078    0.7652 C   0  0  0  0  0  0  0  0  0  0  0  0
   -0.4238    4.0353    0.7885 H   0  0  0  0  0  0  0  0  0  0  0  0
    1.2407    3.5819    0.2814 H   0  0  0  0  0  0  0  0  0  0  0  0
    0.5578    2.9402    1.8113 H   0  0  0  0  0  0  0  0  0  0  0  0
   -2.7814    0.5646    0.3655 C   0  0  0  0  0  0  0  0  0  0  0  0
   -3.8665    0.3251    1.2474 C   0  0  0  0  0  0  0  0  0  0  0  0
   -3.9311    0.8836    2.1919 H   0  0  0  0  0  0  0  0  0  0  0  0
   -4.8206   -0.6232    0.8737 C   0  0  0  0  0  0  0  0  0  0  0  0
   -5.6743   -0.8348    1.5363 H   0  0  0  0  0  0  0  0  0  0  0  0
   -4.6812   -1.3051   -0.3508 C   0  0  0  0  0  0  0  0  0  0  0  0
   -5.4117   -2.0600   -0.6748 H   0  0  0  0  0  0  0  0  0  0  0  0
   -3.5774   -0.9849   -1.1520 C   0  0  0  0  0  0  0  0  0  0  0  0
   -3.4159   -1.4867   -2.1231 H   0  0  0  0  0  0  0  0  0  0  0  0
  1  2  1  0  0  0  0
  1  8  1  0  0  0  0
  3 12  1  0  0  0  0
  4  7  1  0  0  0  0
  4  1  1  0  0  0  0
  5  4  1  0  0  0  0
  6  4  1  0  0  0  0
  8  9  1  0  0  0  0
  8 11  1  0  0  0  0
 10  8  1  0  0  0  0
 12  2  1  0  0  0  0
 12 13  2  0  0  0  0
 13 14  1  0  0  0  0
 15 13  1  0  0  0  0
 15 16  1  0  0  0  0
 17 15  2  0  0  0  0
 18 17  1  0  0  0  0
 19  3  2  0  0  0  0
 19 17  1  0  0  0  0
 20 19  1  0  0  0  0
M  END
