1
 OpenBabel05122313063D

 74 76  0  0  1  0  0  0  0  0999 V2000
    0.0305   -0.7731    0.3141 Si  0  0  0  0  0  3  0  0  0  0  0  0
   -1.3496    0.1561    1.1984 N   0  0  0  0  0  0  0  0  0  0  0  0
   -3.5323   -0.8084    0.5768 C   0  0  0  0  0  0  0  0  0  0  0  0
    0.0616    0.5606    3.1118 C   0  0  0  0  0  0  0  0  0  0  0  0
    0.0777    0.8195    4.1774 H   0  0  0  0  0  0  0  0  0  0  0  0
   -2.9730    1.5153   -0.0727 C   0  0  0  0  0  0  0  0  0  0  0  0
   -2.6355    0.2919    0.5594 C   0  0  0  0  0  0  0  0  0  0  0  0
   -1.2029    0.5243    2.4855 C   0  0  1  0  0  3  0  0  0  0  0  0
   -4.7802   -0.6548   -0.0544 C   0  0  0  0  0  0  0  0  0  0  0  0
   -5.4859   -1.4993   -0.0612 H   0  0  0  0  0  0  0  0  0  0  0  0
   -3.1689   -2.1371    1.2299 C   0  0  0  0  0  0  0  0  0  0  0  0
   -2.2186   -1.9930    1.7835 H   0  0  0  0  0  0  0  0  0  0  0  0
   -4.2371    1.6196   -0.6812 C   0  0  0  0  0  0  0  0  0  0  0  0
   -4.5154    2.5584   -1.1841 H   0  0  0  0  0  0  0  0  0  0  0  0
   -2.4129    0.9601    3.2674 C   0  0  0  0  0  0  0  0  0  0  0  0
   -2.8445    1.8831    2.8308 H   0  0  0  0  0  0  0  0  0  0  0  0
   -2.1546    1.1542    4.3235 H   0  0  0  0  0  0  0  0  0  0  0  0
   -3.2124    0.1947    3.2151 H   0  0  0  0  0  0  0  0  0  0  0  0
   -2.0049    2.6893   -0.1384 C   0  0  0  0  0  0  0  0  0  0  0  0
   -1.0885    2.3973    0.4127 H   0  0  0  0  0  0  0  0  0  0  0  0
   -5.1356    0.5477   -0.6751 C   0  0  0  0  0  0  0  0  0  0  0  0
   -6.1150    0.6462   -1.1669 H   0  0  0  0  0  0  0  0  0  0  0  0
   -4.2274   -2.5996    2.2443 C   0  0  0  0  0  0  0  0  0  0  0  0
   -4.4181   -1.8309    3.0212 H   0  0  0  0  0  0  0  0  0  0  0  0
   -3.8942   -3.5255    2.7555 H   0  0  0  0  0  0  0  0  0  0  0  0
   -5.1964   -2.8250    1.7535 H   0  0  0  0  0  0  0  0  0  0  0  0
   -2.9093   -3.2121    0.1597 C   0  0  0  0  0  0  0  0  0  0  0  0
   -3.8281   -3.4226   -0.4261 H   0  0  0  0  0  0  0  0  0  0  0  0
   -2.5744   -4.1606    0.6268 H   0  0  0  0  0  0  0  0  0  0  0  0
   -2.1260   -2.8804   -0.5492 H   0  0  0  0  0  0  0  0  0  0  0  0
   -1.5946    2.9789   -1.5922 C   0  0  0  0  0  0  0  0  0  0  0  0
   -1.0780    2.1082   -2.0408 H   0  0  0  0  0  0  0  0  0  0  0  0
   -0.9098    3.8494   -1.6373 H   0  0  0  0  0  0  0  0  0  0  0  0
   -2.4765    3.2123   -2.2228 H   0  0  0  0  0  0  0  0  0  0  0  0
   -2.5745    3.9466    0.5398 C   0  0  0  0  0  0  0  0  0  0  0  0
   -3.4734    4.3237    0.0098 H   0  0  0  0  0  0  0  0  0  0  0  0
   -1.8226    4.7624    0.5419 H   0  0  0  0  0  0  0  0  0  0  0  0
   -2.8658    3.7523    1.5921 H   0  0  0  0  0  0  0  0  0  0  0  0
    0.0747   -1.9508    1.2924 H   0  0  0  0  0  0  0  0  0  0  0  0
    1.4103    0.2049    1.1416 N   0  0  0  0  0  0  0  0  0  0  0  0
    3.6450   -0.6948    0.6140 C   0  0  0  0  0  0  0  0  0  0  0  0
    2.9513    1.5149   -0.2767 C   0  0  0  0  0  0  0  0  0  0  0  0
    2.6865    0.3427    0.4806 C   0  0  0  0  0  0  0  0  0  0  0  0
    1.3048    0.5422    2.4434 C   0  0  0  0  0  0  0  0  0  0  0  0
    4.9039   -0.5146    0.0105 C   0  0  0  0  0  0  0  0  0  0  0  0
    5.6614   -1.3078    0.0978 H   0  0  0  0  0  0  0  0  0  0  0  0
    3.3208   -2.0059    1.3217 C   0  0  0  0  0  0  0  0  0  0  0  0
    2.3929   -1.8567    1.9111 H   0  0  0  0  0  0  0  0  0  0  0  0
    4.2274    1.6455   -0.8542 C   0  0  0  0  0  0  0  0  0  0  0  0
    4.4613    2.5379   -1.4501 H   0  0  0  0  0  0  0  0  0  0  0  0
    2.5387    0.9488    3.2057 C   0  0  0  0  0  0  0  0  0  0  0  0
    3.0857    1.7534    2.6767 H   0  0  0  0  0  0  0  0  0  0  0  0
    2.2814    1.2919    4.2233 H   0  0  0  0  0  0  0  0  0  0  0  0
    3.2439    0.0964    3.2794 H   0  0  0  0  0  0  0  0  0  0  0  0
    1.8745    2.5755   -0.4942 C   0  0  0  0  0  0  0  0  0  0  0  0
    0.9246    2.0157   -0.6409 H   0  0  0  0  0  0  0  0  0  0  0  0
    5.2001    0.6496   -0.7044 C   0  0  0  0  0  0  0  0  0  0  0  0
    6.1899    0.7750   -1.1688 H   0  0  0  0  0  0  0  0  0  0  0  0
    4.4205   -2.4578    2.2944 C   0  0  0  0  0  0  0  0  0  0  0  0
    4.6634   -1.6732    3.0403 H   0  0  0  0  0  0  0  0  0  0  0  0
    4.0980   -3.3643    2.8453 H   0  0  0  0  0  0  0  0  0  0  0  0
    5.3604   -2.7157    1.7648 H   0  0  0  0  0  0  0  0  0  0  0  0
    3.0155   -3.0949    0.2771 C   0  0  0  0  0  0  0  0  0  0  0  0
    3.9155   -3.3233   -0.3308 H   0  0  0  0  0  0  0  0  0  0  0  0
    2.6799   -4.0323    0.7655 H   0  0  0  0  0  0  0  0  0  0  0  0
    2.2199   -2.7636   -0.4177 H   0  0  0  0  0  0  0  0  0  0  0  0
    2.1120    3.4201   -1.7528 C   0  0  0  0  0  0  0  0  0  0  0  0
    2.2702    2.7868   -2.6465 H   0  0  0  0  0  0  0  0  0  0  0  0
    1.2363    4.0708   -1.9433 H   0  0  0  0  0  0  0  0  0  0  0  0
    2.9902    4.0889   -1.6388 H   0  0  0  0  0  0  0  0  0  0  0  0
    1.6835    3.4971    0.7255 C   0  0  0  0  0  0  0  0  0  0  0  0
    2.6293    4.0213    0.9761 H   0  0  0  0  0  0  0  0  0  0  0  0
    0.9192    4.2706    0.5049 H   0  0  0  0  0  0  0  0  0  0  0  0
    1.3425    2.9498    1.6241 H   0  0  0  0  0  0  0  0  0  0  0  0
  1 40  1  0  0  0  0
  1  2  1  0  0  0  0
  1 39  1  0  0  0  0
  2  8  1  0  0  0  0
  3 11  1  0  0  0  0
  4  5  1  0  0  0  0
  6  7  2  0  0  0  0
  7  3  1  0  0  0  0
  7  2  1  0  0  0  0
  8  4  1  0  0  0  0
  8 15  1  6  0  0  0
  9  3  2  0  0  0  0
 10  9  1  0  0  0  0
 11 12  1  0  0  0  0
 11 23  1  0  0  0  0
 13 21  2  0  0  0  0
 13  6  1  0  0  0  0
 14 13  1  0  0  0  0
 15 17  1  0  0  0  0
 16 15  1  0  0  0  0
 18 15  1  0  0  0  0
 19  6  1  0  0  0  0
 19 20  1  0  0  0  0
 19 35  1  0  0  0  0
 21  9  1  0  0  0  0
 22 21  1  0  0  0  0
 23 25  1  0  0  0  0
 23 24  1  0  0  0  0
 26 23  1  0  0  0  0
 27 29  1  0  0  0  0
 27 11  1  0  0  0  0
 28 27  1  0  0  0  0
 30 27  1  0  0  0  0
 31 19  1  0  0  0  0
 32 31  1  0  0  0  0
 33 31  1  0  0  0  0
 34 31  1  0  0  0  0
 35 37  1  0  0  0  0
 35 38  1  0  0  0  0
 36 35  1  0  0  0  0
 40 44  1  0  0  0  0
 41 47  1  0  0  0  0
 42 43  2  0  0  0  0
 43 41  1  0  0  0  0
 43 40  1  0  0  0  0
 44  4  2  0  0  0  0
 44 51  1  0  0  0  0
 45 46  1  0  0  0  0
 45 41  2  0  0  0  0
 47 48  1  0  0  0  0
 47 59  1  0  0  0  0
 49 57  2  0  0  0  0
 49 42  1  0  0  0  0
 50 49  1  0  0  0  0
 51 54  1  0  0  0  0
 51 53  1  0  0  0  0
 52 51  1  0  0  0  0
 55 42  1  0  0  0  0
 55 71  1  0  0  0  0
 56 55  1  0  0  0  0
 57 45  1  0  0  0  0
 58 57  1  0  0  0  0
 59 61  1  0  0  0  0
 59 60  1  0  0  0  0
 62 59  1  0  0  0  0
 63 65  1  0  0  0  0
 63 47  1  0  0  0  0
 64 63  1  0  0  0  0
 66 63  1  0  0  0  0
 67 70  1  0  0  0  0
 67 55  1  0  0  0  0
 68 67  1  0  0  0  0
 69 67  1  0  0  0  0
 71 72  1  0  0  0  0
 71 74  1  0  0  0  0
 73 71  1  0  0  0  0
M  END
