1
 OpenBabel05122313063D

 14 14  0  0  0  0  0  0  0  0999 V2000
   -1.0394   -0.6151   -1.0354 Si  0  0  0  0  0  3  0  0  0  0  0  0
   -0.2438   -1.7598   -1.9442 F   0  0  0  0  0  0  0  0  0  0  0  0
   -1.1800    0.5953   -2.1726 F   0  0  0  0  0  0  0  0  0  0  0  0
   -2.7906   -1.2723   -0.7976 C   0  0  0  0  0  0  0  0  0  0  0  0
   -3.2778   -1.5068    0.5065 C   0  0  0  0  0  0  0  0  0  0  0  0
   -4.5805   -1.9881    0.7142 C   0  0  0  0  0  0  0  0  0  0  0  0
   -5.4152   -2.2380   -0.3869 C   0  0  0  0  0  0  0  0  0  0  0  0
   -4.9461   -2.0051   -1.6911 C   0  0  0  0  0  0  0  0  0  0  0  0
   -3.6437   -1.5249   -1.8947 C   0  0  0  0  0  0  0  0  0  0  0  0
   -2.6211   -1.2957    1.3698 H   0  0  0  0  0  0  0  0  0  0  0  0
   -4.9476   -2.1668    1.7368 H   0  0  0  0  0  0  0  0  0  0  0  0
   -6.4379   -2.6140   -0.2290 H   0  0  0  0  0  0  0  0  0  0  0  0
   -5.6026   -2.1981   -2.5538 H   0  0  0  0  0  0  0  0  0  0  0  0
   -3.2858   -1.3395   -2.9201 H   0  0  0  0  0  0  0  0  0  0  0  0
  1  4  1  0  0  0  0
  2  1  1  0  0  0  0
  3  1  1  0  0  0  0
  4  5  1  0  0  0  0
  5  6  2  0  0  0  0
  5 10  1  0  0  0  0
  6 11  1  0  0  0  0
  7 12  1  0  0  0  0
  7  6  1  0  0  0  0
  8  7  2  0  0  0  0
  9  8  1  0  0  0  0
  9  4  2  0  0  0  0
 13  8  1  0  0  0  0
 14  9  1  0  0  0  0
M  END
