1
 OpenBabel05122313063D

 57 59  0  0  0  0  0  0  0  0999 V2000
   -1.2065   -0.1392   -0.9297 Si  0  0  1  0  0  3  0  0  0  0  0  0
    0.0657   -3.3090   -0.7433 Si  0  0  0  0  0  0  0  0  0  0  0  0
    0.1634   -1.4262   -0.6310 C   0  0  0  0  0  0  0  0  0  0  0  0
   -0.3485    3.1644   -1.1044 Si  0  0  0  0  0  0  0  0  0  0  0  0
    1.2937   -0.6998   -0.3218 C   0  0  0  0  0  0  0  0  0  0  0  0
    1.1787    0.8007   -0.3280 C   0  0  0  0  0  0  0  0  0  0  0  0
   -0.0284    1.3410   -0.7217 C   0  0  0  0  0  0  0  0  0  0  0  0
   -1.9181   -0.3145   -2.6822 C   0  0  0  0  0  0  0  0  0  0  0  0
   -2.6662    0.4715   -2.9033 H   0  0  0  0  0  0  0  0  0  0  0  0
   -2.4078   -1.3011   -2.8068 H   0  0  0  0  0  0  0  0  0  0  0  0
   -1.0975   -0.2350   -3.4237 H   0  0  0  0  0  0  0  0  0  0  0  0
   -1.7310   -3.9066   -0.6517 C   0  0  0  0  0  0  0  0  0  0  0  0
   -2.2193   -3.6753    0.3151 H   0  0  0  0  0  0  0  0  0  0  0  0
   -1.7454   -5.0095   -0.7765 H   0  0  0  0  0  0  0  0  0  0  0  0
   -2.3606   -3.4732   -1.4533 H   0  0  0  0  0  0  0  0  0  0  0  0
    1.0224   -4.1744    0.6490 C   0  0  0  0  0  0  0  0  0  0  0  0
    0.7131   -3.7961    1.6454 H   0  0  0  0  0  0  0  0  0  0  0  0
    2.1163   -4.0269    0.5619 H   0  0  0  0  0  0  0  0  0  0  0  0
    0.8150   -5.2647    0.6208 H   0  0  0  0  0  0  0  0  0  0  0  0
    0.7186   -3.8826   -2.4325 C   0  0  0  0  0  0  0  0  0  0  0  0
    0.4983   -4.9603   -2.5814 H   0  0  0  0  0  0  0  0  0  0  0  0
    1.8132   -3.7429   -2.5221 H   0  0  0  0  0  0  0  0  0  0  0  0
    0.2300   -3.3176   -3.2527 H   0  0  0  0  0  0  0  0  0  0  0  0
    2.6082   -1.3143    0.0308 C   0  0  0  0  0  0  0  0  0  0  0  0
    3.3979   -1.9434   -0.9534 C   0  0  0  0  0  0  0  0  0  0  0  0
    3.0455   -1.9485   -1.9955 H   0  0  0  0  0  0  0  0  0  0  0  0
    4.6192   -2.5467   -0.6167 C   0  0  0  0  0  0  0  0  0  0  0  0
    5.2213   -3.0356   -1.3979 H   0  0  0  0  0  0  0  0  0  0  0  0
    5.0727   -2.5250    0.7114 C   0  0  0  0  0  0  0  0  0  0  0  0
    6.0287   -3.0005    0.9781 H   0  0  0  0  0  0  0  0  0  0  0  0
    4.3038   -1.8837    1.6968 C   0  0  0  0  0  0  0  0  0  0  0  0
    4.6562   -1.8552    2.7392 H   0  0  0  0  0  0  0  0  0  0  0  0
    3.0873   -1.2767    1.3577 C   0  0  0  0  0  0  0  0  0  0  0  0
    2.4911   -0.7698    2.1316 H   0  0  0  0  0  0  0  0  0  0  0  0
    2.3454    1.6149    0.1168 C   0  0  0  0  0  0  0  0  0  0  0  0
    3.5764    1.5983   -0.5735 C   0  0  0  0  0  0  0  0  0  0  0  0
    3.6863    0.9627   -1.4641 H   0  0  0  0  0  0  0  0  0  0  0  0
    4.6463    2.3950   -0.1452 C   0  0  0  0  0  0  0  0  0  0  0  0
    5.5944    2.3807   -0.7042 H   0  0  0  0  0  0  0  0  0  0  0  0
    4.5136    3.2093    0.9920 C   0  0  0  0  0  0  0  0  0  0  0  0
    5.3571    3.8309    1.3287 H   0  0  0  0  0  0  0  0  0  0  0  0
    3.3014    3.2205    1.6994 C   0  0  0  0  0  0  0  0  0  0  0  0
    3.1902    3.8491    2.5962 H   0  0  0  0  0  0  0  0  0  0  0  0
    2.2280    2.4299    1.2635 C   0  0  0  0  0  0  0  0  0  0  0  0
    1.2758    2.4341    1.8157 H   0  0  0  0  0  0  0  0  0  0  0  0
   -1.5532    3.2670   -2.5659 C   0  0  0  0  0  0  0  0  0  0  0  0
   -2.5536    2.8663   -2.3133 H   0  0  0  0  0  0  0  0  0  0  0  0
   -1.1645    2.7117   -3.4436 H   0  0  0  0  0  0  0  0  0  0  0  0
   -1.6826    4.3277   -2.8661 H   0  0  0  0  0  0  0  0  0  0  0  0
   -1.1238    4.0840    0.3681 C   0  0  0  0  0  0  0  0  0  0  0  0
   -0.4713    4.0410    1.2636 H   0  0  0  0  0  0  0  0  0  0  0  0
   -2.1175    3.6692    0.6281 H   0  0  0  0  0  0  0  0  0  0  0  0
   -1.2674    5.1536    0.1079 H   0  0  0  0  0  0  0  0  0  0  0  0
    1.2266    4.0795   -1.6329 C   0  0  0  0  0  0  0  0  0  0  0  0
    0.9410    5.0613   -2.0660 H   0  0  0  0  0  0  0  0  0  0  0  0
    1.7747    3.5103   -2.4108 H   0  0  0  0  0  0  0  0  0  0  0  0
    1.9251    4.2612   -0.7939 H   0  0  0  0  0  0  0  0  0  0  0  0
  1  8  1  6  0  0  0
  1  7  1  0  0  0  0
  1  3  1  0  0  0  0
  2 12  1  0  0  0  0
  2  3  1  0  0  0  0
  2 16  1  0  0  0  0
  3  5  2  0  0  0  0
  4  7  1  0  0  0  0
  4 50  1  0  0  0  0
  5 24  1  0  0  0  0
  6  5  1  0  0  0  0
  6 35  1  0  0  0  0
  7  6  2  0  0  0  0
  9  8  1  0  0  0  0
 10  8  1  0  0  0  0
 11  8  1  0  0  0  0
 12 13  1  0  0  0  0
 14 12  1  0  0  0  0
 15 12  1  0  0  0  0
 16 17  1  0  0  0  0
 18 16  1  0  0  0  0
 19 16  1  0  0  0  0
 20  2  1  0  0  0  0
 21 20  1  0  0  0  0
 22 20  1  0  0  0  0
 23 20  1  0  0  0  0
 24 33  1  0  0  0  0
 25 27  1  0  0  0  0
 25 24  2  0  0  0  0
 26 25  1  0  0  0  0
 27 29  2  0  0  0  0
 28 27  1  0  0  0  0
 29 30  1  0  0  0  0
 29 31  1  0  0  0  0
 31 32  1  0  0  0  0
 33 31  2  0  0  0  0
 33 34  1  0  0  0  0
 35 44  1  0  0  0  0
 36 38  1  0  0  0  0
 36 35  2  0  0  0  0
 37 36  1  0  0  0  0
 38 40  2  0  0  0  0
 39 38  1  0  0  0  0
 40 41  1  0  0  0  0
 40 42  1  0  0  0  0
 42 43  1  0  0  0  0
 44 42  2  0  0  0  0
 44 45  1  0  0  0  0
 46 47  1  0  0  0  0
 46  4  1  0  0  0  0
 48 46  1  0  0  0  0
 49 46  1  0  0  0  0
 50 52  1  0  0  0  0
 50 51  1  0  0  0  0
 53 50  1  0  0  0  0
 54  4  1  0  0  0  0
 54 57  1  0  0  0  0
 55 54  1  0  0  0  0
 56 54  1  0  0  0  0
M  END
