1
 OpenBabel05122313063D

 75 77  0  0  1  0  0  0  0  0999 V2000
    0.0214   -0.7093    0.1061 Si  0  0  1  0  0  3  0  0  0  0  0  0
    0.0765   -2.7428    1.0020 S   0  0  0  0  0  0  0  0  0  0  0  0
    0.0762   -2.3531    2.3130 H   0  0  0  0  0  0  0  0  0  0  0  0
   -1.3619    0.0494    1.1436 N   0  0  0  0  0  0  0  0  0  0  0  0
    1.4108    0.1099    1.0892 N   0  0  0  0  0  0  0  0  0  0  0  0
   -2.4243    0.5244    3.3152 C   0  0  0  0  0  0  0  0  0  0  0  0
   -2.9180    1.4632    2.9949 H   0  0  0  0  0  0  0  0  0  0  0  0
   -2.1531    0.6096    4.3824 H   0  0  0  0  0  0  0  0  0  0  0  0
   -3.1799   -0.2764    3.1889 H   0  0  0  0  0  0  0  0  0  0  0  0
   -1.2115    0.2436    2.4698 C   0  0  0  0  0  0  0  0  0  0  0  0
    0.0572    0.2169    3.0884 C   0  0  0  0  0  0  0  0  0  0  0  0
    0.0755    0.3321    4.1789 H   0  0  0  0  0  0  0  0  0  0  0  0
    1.3018    0.2845    2.4237 C   0  0  2  0  0  3  0  0  0  0  0  0
    2.5339    0.5786    3.2374 C   0  0  0  0  0  0  0  0  0  0  0  0
    3.2233   -0.2893    3.2143 H   0  0  0  0  0  0  0  0  0  0  0  0
    2.2715    0.8013    4.2868 H   0  0  0  0  0  0  0  0  0  0  0  0
    3.0988    1.4313    2.8137 H   0  0  0  0  0  0  0  0  0  0  0  0
   -2.6493    0.3260    0.5343 C   0  0  0  0  0  0  0  0  0  0  0  0
   -3.6176   -0.7050    0.3966 C   0  0  0  0  0  0  0  0  0  0  0  0
   -4.8559   -0.3792   -0.1886 C   0  0  0  0  0  0  0  0  0  0  0  0
   -5.6090   -1.1718   -0.3128 H   0  0  0  0  0  0  0  0  0  0  0  0
   -5.1462    0.9201   -0.6123 C   0  0  0  0  0  0  0  0  0  0  0  0
   -6.1207    1.1503   -1.0683 H   0  0  0  0  0  0  0  0  0  0  0  0
   -4.1853    1.9232   -0.4609 C   0  0  0  0  0  0  0  0  0  0  0  0
   -4.4095    2.9455   -0.8014 H   0  0  0  0  0  0  0  0  0  0  0  0
   -2.9265    1.6510    0.1045 C   0  0  0  0  0  0  0  0  0  0  0  0
   -3.3699   -2.1410    0.8318 C   0  0  0  0  0  0  0  0  0  0  0  0
   -2.4098   -2.1704    1.3828 H   0  0  0  0  0  0  0  0  0  0  0  0
   -3.1908   -3.0501   -0.3959 C   0  0  0  0  0  0  0  0  0  0  0  0
   -4.1187   -3.0925   -1.0036 H   0  0  0  0  0  0  0  0  0  0  0  0
   -2.9297   -4.0809   -0.0825 H   0  0  0  0  0  0  0  0  0  0  0  0
   -2.3737   -2.6779   -1.0445 H   0  0  0  0  0  0  0  0  0  0  0  0
   -4.4651   -2.6716    1.7704 C   0  0  0  0  0  0  0  0  0  0  0  0
   -4.6023   -2.0183    2.6570 H   0  0  0  0  0  0  0  0  0  0  0  0
   -4.1991   -3.6852    2.1332 H   0  0  0  0  0  0  0  0  0  0  0  0
   -5.4485   -2.7518    1.2628 H   0  0  0  0  0  0  0  0  0  0  0  0
   -1.9150    2.7830    0.2179 C   0  0  0  0  0  0  0  0  0  0  0  0
   -0.9825    2.3595    0.6399 H   0  0  0  0  0  0  0  0  0  0  0  0
   -2.3978    3.8867    1.1750 C   0  0  0  0  0  0  0  0  0  0  0  0
   -3.3209    4.3739    0.7987 H   0  0  0  0  0  0  0  0  0  0  0  0
   -1.6247    4.6747    1.2847 H   0  0  0  0  0  0  0  0  0  0  0  0
   -2.6189    3.4892    2.1861 H   0  0  0  0  0  0  0  0  0  0  0  0
   -1.5814    3.3582   -1.1683 C   0  0  0  0  0  0  0  0  0  0  0  0
   -1.1176    2.5906   -1.8181 H   0  0  0  0  0  0  0  0  0  0  0  0
   -0.8772    4.2083   -1.0780 H   0  0  0  0  0  0  0  0  0  0  0  0
   -2.4896    3.7337   -1.6813 H   0  0  0  0  0  0  0  0  0  0  0  0
    2.6876    0.3855    0.4516 C   0  0  0  0  0  0  0  0  0  0  0  0
    2.9068    1.6769   -0.1063 C   0  0  0  0  0  0  0  0  0  0  0  0
    4.1736    1.9568   -0.6498 C   0  0  0  0  0  0  0  0  0  0  0  0
    4.3636    2.9444   -1.0898 H   0  0  0  0  0  0  0  0  0  0  0  0
    5.1928    0.9989   -0.6605 C   0  0  0  0  0  0  0  0  0  0  0  0
    6.1739    1.2422   -1.0955 H   0  0  0  0  0  0  0  0  0  0  0  0
    4.9497   -0.2716   -0.1375 C   0  0  0  0  0  0  0  0  0  0  0  0
    5.7425   -1.0339   -0.1679 H   0  0  0  0  0  0  0  0  0  0  0  0
    3.7036   -0.6074    0.4276 C   0  0  0  0  0  0  0  0  0  0  0  0
    1.8087    2.7365   -0.1468 C   0  0  0  0  0  0  0  0  0  0  0  0
    0.8661    2.1940   -0.3775 H   0  0  0  0  0  0  0  0  0  0  0  0
    1.6221    3.4504    1.2058 C   0  0  0  0  0  0  0  0  0  0  0  0
    1.2847    2.7675    2.0078 H   0  0  0  0  0  0  0  0  0  0  0  0
    0.8593    4.2506    1.1162 H   0  0  0  0  0  0  0  0  0  0  0  0
    2.5704    3.9260    1.5317 H   0  0  0  0  0  0  0  0  0  0  0  0
    2.0260    3.7770   -1.2543 C   0  0  0  0  0  0  0  0  0  0  0  0
    2.8955    4.4311   -1.0377 H   0  0  0  0  0  0  0  0  0  0  0  0
    1.1426    4.4391   -1.3324 H   0  0  0  0  0  0  0  0  0  0  0  0
    2.1859    3.2993   -2.2396 H   0  0  0  0  0  0  0  0  0  0  0  0
    3.4988   -2.0270    0.9352 C   0  0  0  0  0  0  0  0  0  0  0  0
    2.5294   -2.0671    1.4687 H   0  0  0  0  0  0  0  0  0  0  0  0
    3.3754   -2.9944   -0.2552 C   0  0  0  0  0  0  0  0  0  0  0  0
    2.5713   -2.6725   -0.9446 H   0  0  0  0  0  0  0  0  0  0  0  0
    3.1278   -4.0164    0.0956 H   0  0  0  0  0  0  0  0  0  0  0  0
    4.3226   -3.0407   -0.8321 H   0  0  0  0  0  0  0  0  0  0  0  0
    4.5953   -2.4838    1.9102 C   0  0  0  0  0  0  0  0  0  0  0  0
    5.5858   -2.5649    1.4171 H   0  0  0  0  0  0  0  0  0  0  0  0
    4.3499   -3.4854    2.3178 H   0  0  0  0  0  0  0  0  0  0  0  0
    4.7098   -1.7872    2.7665 H   0  0  0  0  0  0  0  0  0  0  0  0
  1  2  1  1  0  0  0
  1  5  1  0  0  0  0
  1  4  1  0  0  0  0
  2  3  1  0  0  0  0
  4 10  1  0  0  0  0
  5 13  1  0  0  0  0
  6  8  1  0  0  0  0
  7  6  1  0  0  0  0
  9  6  1  0  0  0  0
 10 11  2  0  0  0  0
 10  6  1  0  0  0  0
 11 12  1  0  0  0  0
 13 11  1  0  0  0  0
 13 14  1  6  0  0  0
 14 16  1  0  0  0  0
 15 14  1  0  0  0  0
 17 14  1  0  0  0  0
 18  4  1  0  0  0  0
 19 18  1  0  0  0  0
 19 27  1  0  0  0  0
 20 19  2  0  0  0  0
 21 20  1  0  0  0  0
 22 24  2  0  0  0  0
 22 20  1  0  0  0  0
 23 22  1  0  0  0  0
 24 26  1  0  0  0  0
 25 24  1  0  0  0  0
 26 37  1  0  0  0  0
 26 18  2  0  0  0  0
 27 28  1  0  0  0  0
 27 33  1  0  0  0  0
 29 31  1  0  0  0  0
 29 27  1  0  0  0  0
 30 29  1  0  0  0  0
 32 29  1  0  0  0  0
 33 35  1  0  0  0  0
 33 34  1  0  0  0  0
 36 33  1  0  0  0  0
 37 38  1  0  0  0  0
 37 39  1  0  0  0  0
 39 41  1  0  0  0  0
 39 42  1  0  0  0  0
 40 39  1  0  0  0  0
 43 45  1  0  0  0  0
 43 37  1  0  0  0  0
 44 43  1  0  0  0  0
 46 43  1  0  0  0  0
 47  5  1  0  0  0  0
 48 47  2  0  0  0  0
 49 48  1  0  0  0  0
 50 49  1  0  0  0  0
 51 49  2  0  0  0  0
 51 53  1  0  0  0  0
 52 51  1  0  0  0  0
 53 55  2  0  0  0  0
 54 53  1  0  0  0  0
 55 47  1  0  0  0  0
 55 66  1  0  0  0  0
 56 48  1  0  0  0  0
 56 58  1  0  0  0  0
 57 56  1  0  0  0  0
 58 61  1  0  0  0  0
 58 59  1  0  0  0  0
 60 58  1  0  0  0  0
 62 63  1  0  0  0  0
 62 56  1  0  0  0  0
 64 62  1  0  0  0  0
 65 62  1  0  0  0  0
 66 67  1  0  0  0  0
 66 72  1  0  0  0  0
 68 70  1  0  0  0  0
 68 66  1  0  0  0  0
 69 68  1  0  0  0  0
 71 68  1  0  0  0  0
 72 74  1  0  0  0  0
 72 75  1  0  0  0  0
 73 72  1  0  0  0  0
M  END
