1
 OpenBabel05122313063D

 76 78  0  0  1  0  0  0  0  0999 V2000
   -0.0235   -0.7692    0.2027 Si  0  0  2  0  0  3  0  0  0  0  0  0
   -1.4039    0.1493    1.1167 N   0  0  0  0  0  0  0  0  0  0  0  0
   -2.5450    0.7518    3.2234 C   0  0  0  0  0  0  0  0  0  0  0  0
   -3.1175    1.5679    2.7414 H   0  0  0  0  0  0  0  0  0  0  0  0
   -2.2899    1.0489    4.2562 H   0  0  0  0  0  0  0  0  0  0  0  0
   -3.2263   -0.1219    3.2582 H   0  0  0  0  0  0  0  0  0  0  0  0
   -1.3042    0.4196    2.4353 C   0  0  2  0  0  3  0  0  0  0  0  0
   -0.0615    0.4239    3.1043 C   0  0  0  0  0  0  0  0  0  0  0  0
   -0.0796    0.6258    4.1821 H   0  0  0  0  0  0  0  0  0  0  0  0
   -2.6813    0.3450    0.4633 C   0  0  0  0  0  0  0  0  0  0  0  0
   -2.9298    1.5854   -0.1884 C   0  0  0  0  0  0  0  0  0  0  0  0
   -4.2007    1.7910   -0.7546 C   0  0  0  0  0  0  0  0  0  0  0  0
   -4.4151    2.7381   -1.2673 H   0  0  0  0  0  0  0  0  0  0  0  0
   -5.1929    0.8058   -0.6986 C   0  0  0  0  0  0  0  0  0  0  0  0
   -6.1783    0.9899   -1.1527 H   0  0  0  0  0  0  0  0  0  0  0  0
   -4.9180   -0.4193   -0.0876 C   0  0  0  0  0  0  0  0  0  0  0  0
   -5.6900   -1.2034   -0.0692 H   0  0  0  0  0  0  0  0  0  0  0  0
   -3.6657   -0.6778    0.5032 C   0  0  0  0  0  0  0  0  0  0  0  0
   -1.8473    2.6558   -0.3071 C   0  0  0  0  0  0  0  0  0  0  0  0
   -0.8973    2.1081   -0.4898 H   0  0  0  0  0  0  0  0  0  0  0  0
   -1.6699    3.4756    0.9854 C   0  0  0  0  0  0  0  0  0  0  0  0
   -2.6215    3.9700    1.2715 H   0  0  0  0  0  0  0  0  0  0  0  0
   -0.9112    4.2707    0.8333 H   0  0  0  0  0  0  0  0  0  0  0  0
   -1.3290    2.8600    1.8386 H   0  0  0  0  0  0  0  0  0  0  0  0
   -2.0725    3.6029   -1.4936 C   0  0  0  0  0  0  0  0  0  0  0  0
   -2.9501    4.2624   -1.3313 H   0  0  0  0  0  0  0  0  0  0  0  0
   -2.2241    3.0472   -2.4384 H   0  0  0  0  0  0  0  0  0  0  0  0
   -1.1952    4.2662   -1.6212 H   0  0  0  0  0  0  0  0  0  0  0  0
   -3.4078   -2.0516    1.1086 C   0  0  0  0  0  0  0  0  0  0  0  0
   -2.4331   -2.0137    1.6320 H   0  0  0  0  0  0  0  0  0  0  0  0
   -3.2549   -3.0951   -0.0122 C   0  0  0  0  0  0  0  0  0  0  0  0
   -4.2028   -3.2199   -0.5758 H   0  0  0  0  0  0  0  0  0  0  0  0
   -2.9733   -4.0843    0.4045 H   0  0  0  0  0  0  0  0  0  0  0  0
   -2.4730   -2.7887   -0.7327 H   0  0  0  0  0  0  0  0  0  0  0  0
   -4.4850   -2.4764    2.1188 C   0  0  0  0  0  0  0  0  0  0  0  0
   -4.6133   -1.7306    2.9302 H   0  0  0  0  0  0  0  0  0  0  0  0
   -4.2142   -3.4445    2.5875 H   0  0  0  0  0  0  0  0  0  0  0  0
   -5.4752   -2.6126    1.6372 H   0  0  0  0  0  0  0  0  0  0  0  0
   -0.0660   -2.2989    1.0616 N   0  0  0  0  0  0  0  0  0  0  0  0
   -0.0825   -2.4285    2.0754 H   0  0  0  0  0  0  0  0  0  0  0  0
   -0.0910   -3.1800    0.5486 H   0  0  0  0  0  0  0  0  0  0  0  0
    1.3471    0.1007    1.1738 N   0  0  0  0  0  0  0  0  0  0  0  0
    2.4205    0.7482    3.2965 C   0  0  0  0  0  0  0  0  0  0  0  0
    2.8965    1.6716    2.9107 H   0  0  0  0  0  0  0  0  0  0  0  0
    2.1557    0.9020    4.3578 H   0  0  0  0  0  0  0  0  0  0  0  0
    3.1890   -0.0462    3.2190 H   0  0  0  0  0  0  0  0  0  0  0  0
    1.2037    0.3976    2.4811 C   0  0  0  0  0  0  0  0  0  0  0  0
    2.6355    0.3011    0.5480 C   0  0  0  0  0  0  0  0  0  0  0  0
    2.9407    1.5796    0.0116 C   0  0  0  0  0  0  0  0  0  0  0  0
    4.2045    1.7753   -0.5739 C   0  0  0  0  0  0  0  0  0  0  0  0
    4.4520    2.7602   -0.9987 H   0  0  0  0  0  0  0  0  0  0  0  0
    5.1410    0.7398   -0.6420 C   0  0  0  0  0  0  0  0  0  0  0  0
    6.1205    0.9093   -1.1141 H   0  0  0  0  0  0  0  0  0  0  0  0
    4.8203   -0.5162   -0.1188 C   0  0  0  0  0  0  0  0  0  0  0  0
    5.5543   -1.3338   -0.1825 H   0  0  0  0  0  0  0  0  0  0  0  0
    3.5746   -0.7635    0.4881 C   0  0  0  0  0  0  0  0  0  0  0  0
    1.9433    2.7302    0.0245 C   0  0  0  0  0  0  0  0  0  0  0  0
    1.0179    2.3656    0.5125 H   0  0  0  0  0  0  0  0  0  0  0  0
    2.4569    3.9287    0.8406 C   0  0  0  0  0  0  0  0  0  0  0  0
    3.3684    4.3696    0.3868 H   0  0  0  0  0  0  0  0  0  0  0  0
    1.6878    4.7269    0.8871 H   0  0  0  0  0  0  0  0  0  0  0  0
    2.7082    3.6416    1.8818 H   0  0  0  0  0  0  0  0  0  0  0  0
    1.5765    3.1487   -1.4090 C   0  0  0  0  0  0  0  0  0  0  0  0
    2.4736    3.4540   -1.9848 H   0  0  0  0  0  0  0  0  0  0  0  0
    1.0905    2.3156   -1.9534 H   0  0  0  0  0  0  0  0  0  0  0  0
    0.8787    4.0093   -1.3973 H   0  0  0  0  0  0  0  0  0  0  0  0
    3.2787   -2.1551    1.0310 C   0  0  0  0  0  0  0  0  0  0  0  0
    2.3050   -2.1115    1.5560 H   0  0  0  0  0  0  0  0  0  0  0  0
    3.0996   -3.1542   -0.1251 C   0  0  0  0  0  0  0  0  0  0  0  0
    4.0374   -3.2718   -0.7069 H   0  0  0  0  0  0  0  0  0  0  0  0
    2.8102   -4.1537    0.2604 H   0  0  0  0  0  0  0  0  0  0  0  0
    2.3105   -2.8099   -0.8217 H   0  0  0  0  0  0  0  0  0  0  0  0
    4.3427   -2.6352    2.0307 C   0  0  0  0  0  0  0  0  0  0  0  0
    4.4709   -1.9222    2.8711 H   0  0  0  0  0  0  0  0  0  0  0  0
    4.0555   -3.6171    2.4595 H   0  0  0  0  0  0  0  0  0  0  0  0
    5.3352   -2.7641    1.5516 H   0  0  0  0  0  0  0  0  0  0  0  0
  1 39  1  1  0  0  0
  1  2  1  0  0  0  0
  1 42  1  0  0  0  0
  2  7  1  0  0  0  0
  3  6  1  0  0  0  0
  3  5  1  0  0  0  0
  4  3  1  0  0  0  0
  7  8  1  0  0  0  0
  7  3  1  6  0  0  0
  8  9  1  0  0  0  0
 10 18  1  0  0  0  0
 10  2  1  0  0  0  0
 11 10  2  0  0  0  0
 12 14  2  0  0  0  0
 12 11  1  0  0  0  0
 13 12  1  0  0  0  0
 14 16  1  0  0  0  0
 15 14  1  0  0  0  0
 16 17  1  0  0  0  0
 16 18  2  0  0  0  0
 18 29  1  0  0  0  0
 19 11  1  0  0  0  0
 19 21  1  0  0  0  0
 20 19  1  0  0  0  0
 21 22  1  0  0  0  0
 21 24  1  0  0  0  0
 23 21  1  0  0  0  0
 25 26  1  0  0  0  0
 25 19  1  0  0  0  0
 27 25  1  0  0  0  0
 28 25  1  0  0  0  0
 29 30  1  0  0  0  0
 29 35  1  0  0  0  0
 31 33  1  0  0  0  0
 31 29  1  0  0  0  0
 32 31  1  0  0  0  0
 34 31  1  0  0  0  0
 35 37  1  0  0  0  0
 35 36  1  0  0  0  0
 38 35  1  0  0  0  0
 39 40  1  0  0  0  0
 41 39  1  0  0  0  0
 42 47  1  0  0  0  0
 43 45  1  0  0  0  0
 44 43  1  0  0  0  0
 46 43  1  0  0  0  0
 47  8  2  0  0  0  0
 47 43  1  0  0  0  0
 48 42  1  0  0  0  0
 49 57  1  0  0  0  0
 49 48  2  0  0  0  0
 50 49  1  0  0  0  0
 51 50  1  0  0  0  0
 52 50  2  0  0  0  0
 52 54  1  0  0  0  0
 53 52  1  0  0  0  0
 54 56  2  0  0  0  0
 55 54  1  0  0  0  0
 56 48  1  0  0  0  0
 56 67  1  0  0  0  0
 57 58  1  0  0  0  0
 57 59  1  0  0  0  0
 59 61  1  0  0  0  0
 59 62  1  0  0  0  0
 60 59  1  0  0  0  0
 63 66  1  0  0  0  0
 63 57  1  0  0  0  0
 64 63  1  0  0  0  0
 65 63  1  0  0  0  0
 67 68  1  0  0  0  0
 67 73  1  0  0  0  0
 69 71  1  0  0  0  0
 69 67  1  0  0  0  0
 70 69  1  0  0  0  0
 72 69  1  0  0  0  0
 73 75  1  0  0  0  0
 73 74  1  0  0  0  0
 76 73  1  0  0  0  0
M  END
