1
 OpenBabel05122313063D

 40 39  0  0  0  0  0  0  0  0999 V2000
    2.3937    0.0004   -0.0001 Si  0  0  0  0  0  3  0  0  0  0  0  0
    2.9586   -0.7361    1.7440 C   0  0  0  0  0  0  0  0  0  0  0  0
    2.0528   -0.1468    2.8478 C   0  0  0  0  0  0  0  0  0  0  0  0
    0.9790   -0.3572    2.6472 H   0  0  0  0  0  0  0  0  0  0  0  0
    2.1592    0.9475    2.9619 H   0  0  0  0  0  0  0  0  0  0  0  0
    2.2983   -0.6089    3.8309 H   0  0  0  0  0  0  0  0  0  0  0  0
    2.7389   -2.2610    1.7683 C   0  0  0  0  0  0  0  0  0  0  0  0
    1.6903   -2.5345    1.5242 H   0  0  0  0  0  0  0  0  0  0  0  0
    2.9488   -2.6537    2.7888 H   0  0  0  0  0  0  0  0  0  0  0  0
    3.4044   -2.8027    1.0685 H   0  0  0  0  0  0  0  0  0  0  0  0
    4.4325   -0.4428    2.0809 C   0  0  0  0  0  0  0  0  0  0  0  0
    5.1253   -0.8581    1.3220 H   0  0  0  0  0  0  0  0  0  0  0  0
    4.7040   -0.8987    3.0606 H   0  0  0  0  0  0  0  0  0  0  0  0
    4.6368    0.6433    2.1620 H   0  0  0  0  0  0  0  0  0  0  0  0
    2.9585    1.8790   -0.2338 C   0  0  0  0  0  0  0  0  0  0  0  0
    2.7352    2.6629    1.0736 C   0  0  0  0  0  0  0  0  0  0  0  0
    1.6861    2.5866    1.4307 H   0  0  0  0  0  0  0  0  0  0  0  0
    2.9436    3.7433    0.9032 H   0  0  0  0  0  0  0  0  0  0  0  0
    3.4000    2.3295    1.8941 H   0  0  0  0  0  0  0  0  0  0  0  0
    2.0549    2.5394   -1.2985 C   0  0  0  0  0  0  0  0  0  0  0  0
    2.3015    3.6215   -1.3912 H   0  0  0  0  0  0  0  0  0  0  0  0
    0.9807    2.4723   -1.0173 H   0  0  0  0  0  0  0  0  0  0  0  0
    2.1623    2.0894   -2.3023 H   0  0  0  0  0  0  0  0  0  0  0  0
    4.4335    2.0247   -0.6525 C   0  0  0  0  0  0  0  0  0  0  0  0
    5.1246    1.5751    0.0882 H   0  0  0  0  0  0  0  0  0  0  0  0
    4.7047    3.1012   -0.7463 H   0  0  0  0  0  0  0  0  0  0  0  0
    4.6406    1.5525   -1.6333 H   0  0  0  0  0  0  0  0  0  0  0  0
    2.9607   -1.1418   -1.5089 C   0  0  0  0  0  0  0  0  0  0  0  0
    2.7441   -0.4011   -2.8425 C   0  0  0  0  0  0  0  0  0  0  0  0
    3.4111    0.4748   -2.9614 H   0  0  0  0  0  0  0  0  0  0  0  0
    1.6963   -0.0516   -2.9597 H   0  0  0  0  0  0  0  0  0  0  0  0
    2.9546   -1.0894   -3.6921 H   0  0  0  0  0  0  0  0  0  0  0  0
    2.0548   -2.3922   -1.5519 C   0  0  0  0  0  0  0  0  0  0  0  0
    2.1577   -3.0368   -0.6599 H   0  0  0  0  0  0  0  0  0  0  0  0
    2.3034   -3.0139   -2.4418 H   0  0  0  0  0  0  0  0  0  0  0  0
    0.9814   -2.1132   -1.6382 H   0  0  0  0  0  0  0  0  0  0  0  0
    4.4344   -1.5802   -1.4202 C   0  0  0  0  0  0  0  0  0  0  0  0
    5.1269   -0.7152   -1.3992 H   0  0  0  0  0  0  0  0  0  0  0  0
    4.7078   -2.2010   -2.3039 H   0  0  0  0  0  0  0  0  0  0  0  0
    4.6369   -2.1928   -0.5193 H   0  0  0  0  0  0  0  0  0  0  0  0
  1  2  1  0  0  0  0
  2  7  1  0  0  0  0
  2 11  1  0  0  0  0
  2  3  1  0  0  0  0
  3  5  1  0  0  0  0
  3  6  1  0  0  0  0
  4  3  1  0  0  0  0
  7  9  1  0  0  0  0
  8  7  1  0  0  0  0
 10  7  1  0  0  0  0
 11 14  1  0  0  0  0
 11 13  1  0  0  0  0
 12 11  1  0  0  0  0
 15  1  1  0  0  0  0
 15 16  1  0  0  0  0
 16 17  1  0  0  0  0
 16 19  1  0  0  0  0
 18 16  1  0  0  0  0
 20 22  1  0  0  0  0
 20 15  1  0  0  0  0
 21 20  1  0  0  0  0
 23 20  1  0  0  0  0
 24 15  1  0  0  0  0
 24 25  1  0  0  0  0
 26 24  1  0  0  0  0
 27 24  1  0  0  0  0
 28 37  1  0  0  0  0
 28  1  1  0  0  0  0
 29 28  1  0  0  0  0
 30 29  1  0  0  0  0
 31 29  1  0  0  0  0
 32 29  1  0  0  0  0
 33 28  1  0  0  0  0
 33 34  1  0  0  0  0
 35 33  1  0  0  0  0
 36 33  1  0  0  0  0
 37 38  1  0  0  0  0
 37 40  1  0  0  0  0
 39 37  1  0  0  0  0
M  END
