55
 OpenBabel05122313063D

 55 56  0  0  1  0  0  0  0  0999 V2000
   -3.3996   -0.4149    0.2042 C   0  0  0  0  0  0  0  0  0  0  0  0
   -3.5776   -1.7511   -0.2083 C   0  0  0  0  0  0  0  0  0  0  0  0
   -2.7157   -2.3293   -0.5740 H   0  0  0  0  0  0  0  0  0  0  0  0
   -4.8481   -2.3416   -0.1436 C   0  0  0  0  0  0  0  0  0  0  0  0
   -4.9817   -3.3869   -0.4593 H   0  0  0  0  0  0  0  0  0  0  0  0
   -5.9461   -1.5996    0.3197 C   0  0  0  0  0  0  0  0  0  0  0  0
   -6.9428   -2.0629    0.3653 H   0  0  0  0  0  0  0  0  0  0  0  0
   -5.7725   -0.2659    0.7244 C   0  0  0  0  0  0  0  0  0  0  0  0
   -6.6322    0.3176    1.0855 H   0  0  0  0  0  0  0  0  0  0  0  0
   -4.5033    0.3263    0.6739 C   0  0  0  0  0  0  0  0  0  0  0  0
   -4.3609    1.3678    0.9975 H   0  0  0  0  0  0  0  0  0  0  0  0
   -2.0525    0.2104    0.1601 C   0  0  1  0  0  3  0  0  0  0  0  0
   -1.8842    0.9797   -2.2969 C   0  0  0  0  0  0  0  0  0  0  0  0
   -0.7230    1.7168   -2.9851 C   0  0  0  0  0  0  0  0  0  0  0  0
   -0.4850    2.6552   -2.4488 H   0  0  0  0  0  0  0  0  0  0  0  0
   -0.9892    1.9611   -4.0311 H   0  0  0  0  0  0  0  0  0  0  0  0
    0.1915    1.0872   -3.0012 H   0  0  0  0  0  0  0  0  0  0  0  0
   -2.2143   -0.3098   -3.0717 C   0  0  0  0  0  0  0  0  0  0  0  0
   -1.3441   -0.9980   -3.0753 H   0  0  0  0  0  0  0  0  0  0  0  0
   -2.4654   -0.0686   -4.1235 H   0  0  0  0  0  0  0  0  0  0  0  0
   -3.0789   -0.8404   -2.6302 H   0  0  0  0  0  0  0  0  0  0  0  0
   -3.1129    1.9050   -2.2352 C   0  0  0  0  0  0  0  0  0  0  0  0
   -3.9863    1.3936   -1.7877 H   0  0  0  0  0  0  0  0  0  0  0  0
   -3.3963    2.2251   -3.2572 H   0  0  0  0  0  0  0  0  0  0  0  0
   -2.8859    2.8102   -1.6380 H   0  0  0  0  0  0  0  0  0  0  0  0
   -1.1510   -0.3063    2.5116 C   0  0  0  0  0  0  0  0  0  0  0  0
   -0.7309   -1.7735    2.2850 C   0  0  0  0  0  0  0  0  0  0  0  0
   -1.5057   -2.3271    1.7181 H   0  0  0  0  0  0  0  0  0  0  0  0
   -0.5741   -2.2949    3.2504 H   0  0  0  0  0  0  0  0  0  0  0  0
    0.2166   -1.8048    1.7043 H   0  0  0  0  0  0  0  0  0  0  0  0
   -2.4830   -0.2395    3.2761 C   0  0  0  0  0  0  0  0  0  0  0  0
   -2.8388    0.8064    3.3548 H   0  0  0  0  0  0  0  0  0  0  0  0
   -2.3348   -0.6299    4.3022 H   0  0  0  0  0  0  0  0  0  0  0  0
   -3.2735   -0.8451    2.7966 H   0  0  0  0  0  0  0  0  0  0  0  0
   -0.0632    0.4277    3.3132 C   0  0  0  0  0  0  0  0  0  0  0  0
    0.9029    0.3966    2.7682 H   0  0  0  0  0  0  0  0  0  0  0  0
    0.0819   -0.0486    4.3020 H   0  0  0  0  0  0  0  0  0  0  0  0
   -0.3383    1.4892    3.4682 H   0  0  0  0  0  0  0  0  0  0  0  0
    2.4443    3.0286   -1.0062 C   0  0  0  0  0  0  0  0  0  0  0  0
    2.6900    1.9444   -1.0501 H   0  0  0  0  0  0  0  0  0  0  0  0
    3.3939    3.5980   -0.9617 H   0  0  0  0  0  0  0  0  0  0  0  0
    1.9184    3.3015   -1.9420 H   0  0  0  0  0  0  0  0  0  0  0  0
    2.2946    2.9141    1.5093 C   0  0  0  0  0  0  0  0  0  0  0  0
    1.6511    3.0871    2.3939 H   0  0  0  0  0  0  0  0  0  0  0  0
    3.2318    3.4909    1.6394 H   0  0  0  0  0  0  0  0  0  0  0  0
    2.5473    1.8332    1.4671 H   0  0  0  0  0  0  0  0  0  0  0  0
    1.1526    4.7909    0.2626 C   0  0  0  0  0  0  0  0  0  0  0  0
    0.6031    5.0628   -0.6599 H   0  0  0  0  0  0  0  0  0  0  0  0
    2.0392    5.4492    0.3508 H   0  0  0  0  0  0  0  0  0  0  0  0
    0.4871    4.9756    1.1282 H   0  0  0  0  0  0  0  0  0  0  0  0
    1.5666    3.3185    0.2200 C   0  0  0  0  0  0  0  0  0  0  0  0
   -1.2158    0.3913    1.2082 N   0  0  0  0  0  0  0  0  0  0  0  0
   -1.4118    0.6630   -0.9329 N   0  0  0  0  0  0  0  0  0  0  0  0
    0.3243    2.5716    0.1142 O   0  0  0  0  0  0  0  0  0  0  0  0
    0.1714    0.8984    0.0353 Si  0  0  1  0  0  3  0  0  0  0  0  0
  1 10  1  0  0  0  0
  2  4  1  0  0  0  0
  2  1  2  0  0  0  0
  3  2  1  0  0  0  0
  4  6  2  0  0  0  0
  5  4  1  0  0  0  0
  6  7  1  0  0  0  0
  6  8  1  0  0  0  0
  8  9  1  0  0  0  0
 10  8  2  0  0  0  0
 10 11  1  0  0  0  0
 12  1  1  6  0  0  0
 12 52  1  0  0  0  0
 13 22  1  0  0  0  0
 13 53  1  0  0  0  0
 14 15  1  0  0  0  0
 14 13  1  0  0  0  0
 16 14  1  0  0  0  0
 17 14  1  0  0  0  0
 18 21  1  0  0  0  0
 18 13  1  0  0  0  0
 19 18  1  0  0  0  0
 20 18  1  0  0  0  0
 22 23  1  0  0  0  0
 22 25  1  0  0  0  0
 24 22  1  0  0  0  0
 26 31  1  0  0  0  0
 26 35  1  0  0  0  0
 27 26  1  0  0  0  0
 27 29  1  0  0  0  0
 28 27  1  0  0  0  0
 30 27  1  0  0  0  0
 31 32  1  0  0  0  0
 31 33  1  0  0  0  0
 34 31  1  0  0  0  0
 35 38  1  0  0  0  0
 35 37  1  0  0  0  0
 36 35  1  0  0  0  0
 39 41  1  0  0  0  0
 39 51  1  0  0  0  0
 40 39  1  0  0  0  0
 42 39  1  0  0  0  0
 43 45  1  0  0  0  0
 43 44  1  0  0  0  0
 46 43  1  0  0  0  0
 47 49  1  0  0  0  0
 47 50  1  0  0  0  0
 48 47  1  0  0  0  0
 51 47  1  0  0  0  0
 51 43  1  0  0  0  0
 52 26  1  0  0  0  0
 53 55  1  0  0  0  0
 53 12  1  0  0  0  0
 54 51  1  0  0  0  0
 55 54  1  1  0  0  0
 55 52  1  0  0  0  0
M  END
