1
 OpenBabel05122313063D

 24 25  0  0  0  0  0  0  0  0999 V2000
   -0.8670    0.3080   -0.9717 Si  0  0  0  0  0  3  0  0  0  0  0  0
   -1.3904    6.1909    0.5119 F   0  0  0  0  0  0  0  0  0  0  0  0
   -6.2551   -2.4975   -0.5035 F   0  0  0  0  0  0  0  0  0  0  0  0
   -1.1078    2.1456   -0.4949 C   0  0  0  0  0  0  0  0  0  0  0  0
   -1.6371    2.5643    0.7489 C   0  0  0  0  0  0  0  0  0  0  0  0
   -1.7437    3.9202    1.0970 C   0  0  0  0  0  0  0  0  0  0  0  0
   -1.3016    4.8867    0.1856 C   0  0  0  0  0  0  0  0  0  0  0  0
   -0.7760    4.5244   -1.0601 C   0  0  0  0  0  0  0  0  0  0  0  0
   -0.6916    3.1618   -1.3874 C   0  0  0  0  0  0  0  0  0  0  0  0
   -2.5723   -0.5472   -0.7642 C   0  0  0  0  0  0  0  0  0  0  0  0
   -3.7479    0.1454   -0.3930 C   0  0  0  0  0  0  0  0  0  0  0  0
   -4.9910   -0.5012   -0.2980 C   0  0  0  0  0  0  0  0  0  0  0  0
   -5.0678   -1.8661   -0.5955 C   0  0  0  0  0  0  0  0  0  0  0  0
   -3.9358   -2.5886   -0.9927 C   0  0  0  0  0  0  0  0  0  0  0  0
   -2.7041   -1.9222   -1.0689 C   0  0  0  0  0  0  0  0  0  0  0  0
   -0.7746    0.4101   -2.4860 H   0  0  0  0  0  0  0  0  0  0  0  0
   -1.9841    1.8123    1.4744 H   0  0  0  0  0  0  0  0  0  0  0  0
   -2.1619    4.2414    2.0623 H   0  0  0  0  0  0  0  0  0  0  0  0
   -0.4515    5.3110   -1.7571 H   0  0  0  0  0  0  0  0  0  0  0  0
   -0.2920    2.8820   -2.3754 H   0  0  0  0  0  0  0  0  0  0  0  0
   -3.7029    1.2242   -0.1781 H   0  0  0  0  0  0  0  0  0  0  0  0
   -5.9033    0.0384   -0.0043 H   0  0  0  0  0  0  0  0  0  0  0  0
   -4.0344   -3.6575   -1.2327 H   0  0  0  0  0  0  0  0  0  0  0  0
   -1.8101   -2.4905   -1.3758 H   0  0  0  0  0  0  0  0  0  0  0  0
  1 10  1  0  0  0  0
  1  4  1  0  0  0  0
  4  5  1  0  0  0  0
  5  6  2  0  0  0  0
  5 17  1  0  0  0  0
  6 18  1  0  0  0  0
  7  2  1  0  0  0  0
  7  6  1  0  0  0  0
  8  7  2  0  0  0  0
  9  8  1  0  0  0  0
  9  4  2  0  0  0  0
 10 11  1  0  0  0  0
 11 12  2  0  0  0  0
 11 21  1  0  0  0  0
 12 22  1  0  0  0  0
 13  3  1  0  0  0  0
 13 12  1  0  0  0  0
 14 13  2  0  0  0  0
 15 14  1  0  0  0  0
 15 10  2  0  0  0  0
 16  1  1  0  0  0  0
 19  8  1  0  0  0  0
 20  9  1  0  0  0  0
 23 14  1  0  0  0  0
 24 15  1  0  0  0  0
M  END
