2
 OpenBabel05122313063D

 42 43  0  0  1  0  0  0  0  0999 V2000
    1.4292   -0.3739    2.8333 Cl  0  0  0  0  0  0  0  0  0  0  0  0
    1.0560   -0.0765    0.7666 Si  0  0  1  0  0  3  0  0  0  0  0  0
   -0.4746   -1.1169    0.4611 N   0  0  0  0  0  0  0  0  0  0  0  0
   -0.4736    1.0263    0.7551 N   0  0  0  0  0  0  0  0  0  0  0  0
   -2.6427    0.0454   -0.1210 C   0  0  0  0  0  0  0  0  0  0  0  0
   -1.2427   -0.0160    0.3795 C   0  0  1  0  0  3  0  0  0  0  0  0
   -0.6597    2.4856    0.6464 C   0  0  0  0  0  0  0  0  0  0  0  0
   -3.7268   -0.0483    0.7734 C   0  0  0  0  0  0  0  0  0  0  0  0
   -3.5349   -0.1544    1.8514 H   0  0  0  0  0  0  0  0  0  0  0  0
   -2.8810    0.1927   -1.5033 C   0  0  0  0  0  0  0  0  0  0  0  0
   -2.0299    0.2436   -2.1986 H   0  0  0  0  0  0  0  0  0  0  0  0
   -0.7756   -2.5558    0.3716 C   0  0  0  0  0  0  0  0  0  0  0  0
    0.4420    3.1089    1.5227 C   0  0  0  0  0  0  0  0  0  0  0  0
    0.3488    2.7676    2.5722 H   0  0  0  0  0  0  0  0  0  0  0  0
    0.3731    4.2138    1.4981 H   0  0  0  0  0  0  0  0  0  0  0  0
    1.4494    2.8264    1.1562 H   0  0  0  0  0  0  0  0  0  0  0  0
   -5.2785    0.1601   -1.0875 C   0  0  0  0  0  0  0  0  0  0  0  0
   -6.3107    0.2055   -1.4660 H   0  0  0  0  0  0  0  0  0  0  0  0
   -2.0373    2.9133    1.1818 C   0  0  0  0  0  0  0  0  0  0  0  0
   -2.8636    2.5703    0.5319 H   0  0  0  0  0  0  0  0  0  0  0  0
   -2.0829    4.0193    1.2303 H   0  0  0  0  0  0  0  0  0  0  0  0
   -2.2029    2.5158    2.2030 H   0  0  0  0  0  0  0  0  0  0  0  0
   -0.4854    2.9367   -0.8171 C   0  0  0  0  0  0  0  0  0  0  0  0
   -1.2752    2.5050   -1.4627 H   0  0  0  0  0  0  0  0  0  0  0  0
    0.5003    2.6147   -1.2059 H   0  0  0  0  0  0  0  0  0  0  0  0
   -0.5481    4.0410   -0.8906 H   0  0  0  0  0  0  0  0  0  0  0  0
   -5.0413    0.0080    0.2879 C   0  0  0  0  0  0  0  0  0  0  0  0
   -5.8856   -0.0648    0.9897 H   0  0  0  0  0  0  0  0  0  0  0  0
   -4.1982    0.2520   -1.9802 C   0  0  0  0  0  0  0  0  0  0  0  0
   -4.3809    0.3663   -3.0591 H   0  0  0  0  0  0  0  0  0  0  0  0
   -1.5483   -2.9012   -0.9145 C   0  0  0  0  0  0  0  0  0  0  0  0
   -2.5745   -2.4885   -0.9072 H   0  0  0  0  0  0  0  0  0  0  0  0
   -1.6273   -4.0021   -1.0138 H   0  0  0  0  0  0  0  0  0  0  0  0
   -1.0180   -2.5084   -1.8045 H   0  0  0  0  0  0  0  0  0  0  0  0
   -1.5737   -2.9765    1.6215 C   0  0  0  0  0  0  0  0  0  0  0  0
   -2.5666   -2.4850    1.6404 H   0  0  0  0  0  0  0  0  0  0  0  0
   -1.0225   -2.6953    2.5404 H   0  0  0  0  0  0  0  0  0  0  0  0
   -1.7360   -4.0731    1.6265 H   0  0  0  0  0  0  0  0  0  0  0  0
    0.5854   -3.2741    0.3561 C   0  0  0  0  0  0  0  0  0  0  0  0
    1.1798   -3.0147    1.2555 H   0  0  0  0  0  0  0  0  0  0  0  0
    1.1710   -2.9898   -0.5398 H   0  0  0  0  0  0  0  0  0  0  0  0
    0.4372   -4.3712    0.3451 H   0  0  0  0  0  0  0  0  0  0  0  0
  2  1  1  1  0  0  0
  3  2  1  0  0  0  0
  4  2  1  0  0  0  0
  5  8  1  0  0  0  0
  6  5  1  6  0  0  0
  6  3  1  0  0  0  0
  6  4  1  0  0  0  0
  7  4  1  0  0  0  0
  7 19  1  0  0  0  0
  7 13  1  0  0  0  0
  8  9  1  0  0  0  0
 10  5  2  0  0  0  0
 11 10  1  0  0  0  0
 12  3  1  0  0  0  0
 12 35  1  0  0  0  0
 13 14  1  0  0  0  0
 15 13  1  0  0  0  0
 16 13  1  0  0  0  0
 17 27  1  0  0  0  0
 18 17  1  0  0  0  0
 19 21  1  0  0  0  0
 19 22  1  0  0  0  0
 20 19  1  0  0  0  0
 23  7  1  0  0  0  0
 24 23  1  0  0  0  0
 25 23  1  0  0  0  0
 26 23  1  0  0  0  0
 27  8  2  0  0  0  0
 27 28  1  0  0  0  0
 29 10  1  0  0  0  0
 29 17  2  0  0  0  0
 30 29  1  0  0  0  0
 31 32  1  0  0  0  0
 31 12  1  0  0  0  0
 33 31  1  0  0  0  0
 34 31  1  0  0  0  0
 35 38  1  0  0  0  0
 35 36  1  0  0  0  0
 35 37  1  0  0  0  0
 39 12  1  0  0  0  0
 39 40  1  0  0  0  0
 41 39  1  0  0  0  0
 42 39  1  0  0  0  0
M  END
