3
 OpenBabel05122313063D

 73 79  0  0  0  0  0  0  0  0999 V2000
    2.4979   -0.1055   -0.7129 P   0  3  0  0  0  0  0  0  0  0  0  0
   -2.4980    0.1055   -0.7126 P   0  0  0  0  0  0  0  0  0  0  0  0
    0.0002   -0.0001    0.2573 Si  0  5  2  0  0  0  0  0  0  0  0  0
    3.5499    1.3280   -1.1463 C   0  0  0  0  0  0  0  0  0  0  0  0
    4.3480    1.9064   -0.1322 C   0  0  0  0  0  0  0  0  0  0  0  0
    5.0908    3.0652   -0.3934 C   0  0  0  0  0  0  0  0  0  0  0  0
    5.0402    3.6692   -1.6613 C   0  0  0  0  0  0  0  0  0  0  0  0
    4.2478    3.1019   -2.6701 C   0  0  0  0  0  0  0  0  0  0  0  0
    3.5077    1.9369   -2.4174 C   0  0  0  0  0  0  0  0  0  0  0  0
    3.6703   -1.4373   -0.2408 C   0  0  0  0  0  0  0  0  0  0  0  0
    5.0399   -1.3945   -0.5759 C   0  0  0  0  0  0  0  0  0  0  0  0
    5.8880   -2.4469   -0.2004 C   0  0  0  0  0  0  0  0  0  0  0  0
    5.3789   -3.5486    0.5063 C   0  0  0  0  0  0  0  0  0  0  0  0
    4.0160   -3.5959    0.8385 C   0  0  0  0  0  0  0  0  0  0  0  0
    3.1640   -2.5445    0.4721 C   0  0  0  0  0  0  0  0  0  0  0  0
   -0.0143   -1.6245   -0.7955 C   0  0  0  0  0  0  0  0  0  0  0  0
    0.8181   -1.8168   -1.9337 C   0  0  0  0  0  0  0  0  0  0  0  0
    0.7940   -3.0424   -2.6248 C   0  0  0  0  0  0  0  0  0  0  0  0
   -0.0428   -4.0866   -2.2019 C   0  0  0  0  0  0  0  0  0  0  0  0
   -0.8502   -3.9173   -1.0673 C   0  0  0  0  0  0  0  0  0  0  0  0
   -0.8304   -2.6975   -0.3764 C   0  0  0  0  0  0  0  0  0  0  0  0
    1.7853   -0.7214   -2.3200 C   0  0  0  0  0  0  0  0  0  0  0  0
   -3.5503   -1.3279   -1.1459 C   0  0  0  0  0  0  0  0  0  0  0  0
   -3.5084   -1.9366   -2.4172 C   0  0  0  0  0  0  0  0  0  0  0  0
   -4.2487   -3.1014   -2.6699 C   0  0  0  0  0  0  0  0  0  0  0  0
   -5.0410   -3.6688   -1.6610 C   0  0  0  0  0  0  0  0  0  0  0  0
   -5.0912   -3.0650   -0.3930 C   0  0  0  0  0  0  0  0  0  0  0  0
   -4.3482   -1.9063   -0.1318 C   0  0  0  0  0  0  0  0  0  0  0  0
   -3.6703    1.4374   -0.2404 C   0  0  0  0  0  0  0  0  0  0  0  0
   -3.1638    2.5444    0.4726 C   0  0  0  0  0  0  0  0  0  0  0  0
   -4.0156    3.5960    0.8392 C   0  0  0  0  0  0  0  0  0  0  0  0
   -5.3786    3.5489    0.5070 C   0  0  0  0  0  0  0  0  0  0  0  0
   -5.8878    2.4473   -0.1998 C   0  0  0  0  0  0  0  0  0  0  0  0
   -5.0399    1.3948   -0.5754 C   0  0  0  0  0  0  0  0  0  0  0  0
    0.0143    1.6245   -0.7954 C   0  0  0  0  0  0  0  0  0  0  0  0
   -0.8183    1.8168   -1.9334 C   0  0  0  0  0  0  0  0  0  0  0  0
   -0.7946    3.0426   -2.6242 C   0  0  0  0  0  0  0  0  0  0  0  0
    0.0421    4.0868   -2.2013 C   0  0  0  0  0  0  0  0  0  0  0  0
    0.8498    3.9175   -1.0669 C   0  0  0  0  0  0  0  0  0  0  0  0
    0.8303    2.6975   -0.3762 C   0  0  0  0  0  0  0  0  0  0  0  0
   -1.7855    0.7213   -2.3196 C   0  0  0  0  0  0  0  0  0  0  0  0
    4.3722    1.4502    0.8685 H   0  0  0  0  0  0  0  0  0  0  0  0
    5.7087    3.5048    0.4043 H   0  0  0  0  0  0  0  0  0  0  0  0
    5.6189    4.5837   -1.8615 H   0  0  0  0  0  0  0  0  0  0  0  0
    4.2008    3.5692   -3.6654 H   0  0  0  0  0  0  0  0  0  0  0  0
    2.8861    1.5143   -3.2190 H   0  0  0  0  0  0  0  0  0  0  0  0
    5.4448   -0.5328   -1.1274 H   0  0  0  0  0  0  0  0  0  0  0  0
    6.9564   -2.4043   -0.4621 H   0  0  0  0  0  0  0  0  0  0  0  0
    6.0488   -4.3699    0.8034 H   0  0  0  0  0  0  0  0  0  0  0  0
    3.6067   -4.4501    1.3985 H   0  0  0  0  0  0  0  0  0  0  0  0
    2.1008   -2.5894    0.7423 H   0  0  0  0  0  0  0  0  0  0  0  0
    1.4540   -3.1833   -3.4955 H   0  0  0  0  0  0  0  0  0  0  0  0
   -0.0488   -5.0408   -2.7504 H   0  0  0  0  0  0  0  0  0  0  0  0
   -1.4992   -4.7339   -0.7173 H   0  0  0  0  0  0  0  0  0  0  0  0
   -1.4695   -2.5763    0.5112 H   0  0  0  0  0  0  0  0  0  0  0  0
    1.2614    0.1424   -2.7842 H   0  0  0  0  0  0  0  0  0  0  0  0
    2.5732   -1.0740   -3.0141 H   0  0  0  0  0  0  0  0  0  0  0  0
   -2.8870   -1.5139   -3.2188 H   0  0  0  0  0  0  0  0  0  0  0  0
   -4.2020   -3.5685   -3.6653 H   0  0  0  0  0  0  0  0  0  0  0  0
   -5.6199   -4.5832   -1.8613 H   0  0  0  0  0  0  0  0  0  0  0  0
   -5.7090   -3.5046    0.4047 H   0  0  0  0  0  0  0  0  0  0  0  0
   -4.3721   -1.4503    0.8690 H   0  0  0  0  0  0  0  0  0  0  0  0
   -2.1006    2.5892    0.7428 H   0  0  0  0  0  0  0  0  0  0  0  0
   -3.6062    4.4501    1.3992 H   0  0  0  0  0  0  0  0  0  0  0  0
   -6.0483    4.3702    0.8041 H   0  0  0  0  0  0  0  0  0  0  0  0
   -6.9562    2.4048   -0.4616 H   0  0  0  0  0  0  0  0  0  0  0  0
   -5.4449    0.5332   -1.1270 H   0  0  0  0  0  0  0  0  0  0  0  0
   -1.4548    3.1835   -3.4948 H   0  0  0  0  0  0  0  0  0  0  0  0
    0.0478    5.0412   -2.7497 H   0  0  0  0  0  0  0  0  0  0  0  0
    1.4986    4.7342   -0.7168 H   0  0  0  0  0  0  0  0  0  0  0  0
    1.4696    2.5763    0.5112 H   0  0  0  0  0  0  0  0  0  0  0  0
   -2.5733    1.0739   -3.0138 H   0  0  0  0  0  0  0  0  0  0  0  0
   -1.2615   -0.1424   -2.7839 H   0  0  0  0  0  0  0  0  0  0  0  0
  1 10  1  0  0  0  0
  2 29  1  0  0  0  0
  3 35  1  6  0  0  0
  3  1  1  0  0  0  0
  4  1  1  0  0  0  0
  4  5  1  0  0  0  0
  5 42  1  0  0  0  0
  6  5  2  0  0  0  0
  6 43  1  0  0  0  0
  7  6  1  0  0  0  0
  8  9  1  0  0  0  0
  8  7  2  0  0  0  0
  9  4  2  0  0  0  0
 10 15  1  0  0  0  0
 11 10  2  0  0  0  0
 11 12  1  0  0  0  0
 12 13  2  0  0  0  0
 13 49  1  0  0  0  0
 13 14  1  0  0  0  0
 14 50  1  0  0  0  0
 15 51  1  0  0  0  0
 15 14  2  0  0  0  0
 16 21  1  0  0  0  0
 16  3  1  0  0  0  0
 17 16  2  0  0  0  0
 18 19  2  0  0  0  0
 18 17  1  0  0  0  0
 19 20  1  0  0  0  0
 20 54  1  0  0  0  0
 20 21  2  0  0  0  0
 21 55  1  0  0  0  0
 22 17  1  0  0  0  0
 22  1  1  0  0  0  0
 23  2  1  0  0  0  0
 23 28  1  0  0  0  0
 24 23  2  0  0  0  0
 25 24  1  0  0  0  0
 25 26  2  0  0  0  0
 26 27  1  0  0  0  0
 27 28  2  0  0  0  0
 27 61  1  0  0  0  0
 28 62  1  0  0  0  0
 29 30  1  0  0  0  0
 30 63  1  0  0  0  0
 30 31  2  0  0  0  0
 31 64  1  0  0  0  0
 32 65  1  0  0  0  0
 32 31  1  0  0  0  0
 33 32  2  0  0  0  0
 34 29  2  0  0  0  0
 34 33  1  0  0  0  0
 35 40  1  0  0  0  0
 36 35  2  0  0  0  0
 37 38  2  0  0  0  0
 37 36  1  0  0  0  0
 38 39  1  0  0  0  0
 39 70  1  0  0  0  0
 39 40  2  0  0  0  0
 40 71  1  0  0  0  0
 41 36  1  0  0  0  0
 41  2  1  0  0  0  0
 44  7  1  0  0  0  0
 45  8  1  0  0  0  0
 46  9  1  0  0  0  0
 47 11  1  0  0  0  0
 48 12  1  0  0  0  0
 52 18  1  0  0  0  0
 53 19  1  0  0  0  0
 56 22  1  0  0  0  0
 57 22  1  0  0  0  0
 58 24  1  0  0  0  0
 59 25  1  0  0  0  0
 60 26  1  0  0  0  0
 66 33  1  0  0  0  0
 67 34  1  0  0  0  0
 68 37  1  0  0  0  0
 69 38  1  0  0  0  0
 72 41  1  0  0  0  0
 73 41  1  0  0  0  0
M  CHG  2   1   1   3  -1
M  ZCH  2   1   0   3   0
M  ZBO  1   4   0
M  END
