1
 OpenBabel05122313063D

 22 22  0  0  0  0  0  0  0  0999 V2000
   -0.8734    1.4731    0.2722 Si  0  0  0  0  0  3  0  0  0  0  0  0
   -1.3563    2.7917   -0.9903 C   0  0  0  0  0  0  0  0  0  0  0  0
   -0.7768    3.7161   -0.7879 H   0  0  0  0  0  0  0  0  0  0  0  0
   -2.4359    3.0309   -0.9154 H   0  0  0  0  0  0  0  0  0  0  0  0
   -1.1365    2.4627   -2.0242 H   0  0  0  0  0  0  0  0  0  0  0  0
   -1.1812    2.1010    2.0278 C   0  0  0  0  0  0  0  0  0  0  0  0
   -0.8713    1.3501    2.7802 H   0  0  0  0  0  0  0  0  0  0  0  0
   -2.2523    2.3392    2.1831 H   0  0  0  0  0  0  0  0  0  0  0  0
   -0.5868    3.0234    2.1920 H   0  0  0  0  0  0  0  0  0  0  0  0
    0.9110    1.0803    0.1040 C   0  0  0  0  0  0  0  0  0  0  0  0
    2.0861    0.7010    0.0443 C   0  0  0  0  0  0  0  0  0  0  0  0
    3.4307    0.2295    0.0064 C   0  0  0  0  0  0  0  0  0  0  0  0
    3.8101   -0.8799    0.8059 C   0  0  0  0  0  0  0  0  0  0  0  0
    3.0531   -1.3581    1.4447 H   0  0  0  0  0  0  0  0  0  0  0  0
    5.1264   -1.3532    0.7745 C   0  0  0  0  0  0  0  0  0  0  0  0
    5.4098   -2.2146    1.3981 H   0  0  0  0  0  0  0  0  0  0  0  0
    6.0830   -0.7347   -0.0481 C   0  0  0  0  0  0  0  0  0  0  0  0
    7.1172   -1.1102   -0.0697 H   0  0  0  0  0  0  0  0  0  0  0  0
    5.7165    0.3638   -0.8436 C   0  0  0  0  0  0  0  0  0  0  0  0
    6.4635    0.8497   -1.4894 H   0  0  0  0  0  0  0  0  0  0  0  0
    4.4029    0.8463   -0.8209 C   0  0  0  0  0  0  0  0  0  0  0  0
    4.1098    1.7051   -1.4417 H   0  0  0  0  0  0  0  0  0  0  0  0
  1  6  1  0  0  0  0
  2  4  1  0  0  0  0
  2  3  1  0  0  0  0
  2  1  1  0  0  0  0
  5  2  1  0  0  0  0
  6  8  1  0  0  0  0
  6  9  1  0  0  0  0
  6  7  1  0  0  0  0
 10  1  1  0  0  0  0
 11 10  3  0  0  0  0
 12 11  1  0  0  0  0
 12 13  1  0  0  0  0
 13 14  1  0  0  0  0
 15 13  2  0  0  0  0
 15 16  1  0  0  0  0
 17 15  1  0  0  0  0
 18 17  1  0  0  0  0
 19 21  1  0  0  0  0
 19 17  2  0  0  0  0
 20 19  1  0  0  0  0
 21 12  2  0  0  0  0
 22 21  1  0  0  0  0
M  END
