1
 OpenBabel05122313063D

 42 42  0  0  0  0  0  0  0  0999 V2000
    1.0704   -0.0134   -0.0375 Si  0  0  0  0  0  0  0  0  0  0  0  0
    2.5942    1.8298   -0.3283 Si  0  0  0  0  0  0  0  0  0  0  0  0
    1.8645   -1.0162    1.9937 Si  0  0  0  0  0  0  0  0  0  0  0  0
    1.3449   -1.2822   -1.2921 N   0  0  0  0  0  0  0  0  0  0  0  0
    1.9281    3.3671    0.5853 C   0  0  0  0  0  0  0  0  0  0  0  0
    2.6090    4.2223    0.3902 H   0  0  0  0  0  0  0  0  0  0  0  0
    1.8785    3.2291    1.6840 H   0  0  0  0  0  0  0  0  0  0  0  0
    0.9184    3.6498    0.2261 H   0  0  0  0  0  0  0  0  0  0  0  0
    2.8709    2.4143   -2.1281 C   0  0  0  0  0  0  0  0  0  0  0  0
    3.4987    3.3303   -2.0927 H   0  0  0  0  0  0  0  0  0  0  0  0
    1.9356    2.6799   -2.6608 H   0  0  0  0  0  0  0  0  0  0  0  0
    3.4142    1.6636   -2.7354 H   0  0  0  0  0  0  0  0  0  0  0  0
    4.3462    1.5250    0.3603 C   0  0  0  0  0  0  0  0  0  0  0  0
    4.8553    0.6863   -0.1553 H   0  0  0  0  0  0  0  0  0  0  0  0
    4.3345    1.2999    1.4449 H   0  0  0  0  0  0  0  0  0  0  0  0
    4.9607    2.4378    0.2083 H   0  0  0  0  0  0  0  0  0  0  0  0
    2.0964    0.2732    3.3844 C   0  0  0  0  0  0  0  0  0  0  0  0
    2.6836   -0.1875    4.2072 H   0  0  0  0  0  0  0  0  0  0  0  0
    1.1302    0.6043    3.8148 H   0  0  0  0  0  0  0  0  0  0  0  0
    2.6465    1.1738    3.0447 H   0  0  0  0  0  0  0  0  0  0  0  0
    0.7524   -2.3980    2.6968 C   0  0  0  0  0  0  0  0  0  0  0  0
    0.9909   -2.5617    3.7691 H   0  0  0  0  0  0  0  0  0  0  0  0
    0.9353   -3.3530    2.1641 H   0  0  0  0  0  0  0  0  0  0  0  0
   -0.3299   -2.1799    2.6032 H   0  0  0  0  0  0  0  0  0  0  0  0
    3.5577   -1.8199    1.6557 C   0  0  0  0  0  0  0  0  0  0  0  0
    4.3151   -1.0820    1.3304 H   0  0  0  0  0  0  0  0  0  0  0  0
    3.4751   -2.5937    0.8664 H   0  0  0  0  0  0  0  0  0  0  0  0
    3.9287   -2.3135    2.5794 H   0  0  0  0  0  0  0  0  0  0  0  0
    1.1080   -2.6856   -0.9648 C   0  0  0  0  0  0  0  0  0  0  0  0
    0.5545   -2.7160   -0.0047 H   0  0  0  0  0  0  0  0  0  0  0  0
    2.0698   -3.2275   -0.7789 H   0  0  0  0  0  0  0  0  0  0  0  0
    0.2932   -3.4703   -1.9970 C   0  0  0  0  0  0  0  0  0  0  0  0
   -0.7174   -3.0316   -2.1183 H   0  0  0  0  0  0  0  0  0  0  0  0
    0.1634   -4.5176   -1.6565 H   0  0  0  0  0  0  0  0  0  0  0  0
    0.7857   -3.5093   -2.9900 H   0  0  0  0  0  0  0  0  0  0  0  0
    2.0657   -1.0247   -2.5290 C   0  0  0  0  0  0  0  0  0  0  0  0
    1.9347    0.0416   -2.8000 H   0  0  0  0  0  0  0  0  0  0  0  0
    1.6047   -1.5954   -3.3687 H   0  0  0  0  0  0  0  0  0  0  0  0
    3.5649   -1.3471   -2.4703 C   0  0  0  0  0  0  0  0  0  0  0  0
    4.0598   -0.7570   -1.6724 H   0  0  0  0  0  0  0  0  0  0  0  0
    4.0631   -1.1156   -3.4345 H   0  0  0  0  0  0  0  0  0  0  0  0
    3.7432   -2.4191   -2.2503 H   0  0  0  0  0  0  0  0  0  0  0  0
  1  3  1  0  0  0  0
  1 29  1  0  0  0  0
  2  1  1  0  0  0  0
  2 13  1  0  0  0  0
  2  5  1  0  0  0  0
  3 21  1  0  0  0  0
  3 17  1  0  0  0  0
  4 29  1  0  0  0  0
  4  1  1  0  0  0  0
  5  7  1  0  0  0  0
  6  5  1  0  0  0  0
  8  5  1  0  0  0  0
  9 10  1  0  0  0  0
  9  2  1  0  0  0  0
 11  9  1  0  0  0  0
 12  9  1  0  0  0  0
 13 15  1  0  0  0  0
 14 13  1  0  0  0  0
 16 13  1  0  0  0  0
 17 19  1  0  0  0  0
 17 18  1  0  0  0  0
 20 17  1  0  0  0  0
 21 22  1  0  0  0  0
 23 21  1  0  0  0  0
 24 21  1  0  0  0  0
 25  3  1  0  0  0  0
 25 28  1  0  0  0  0
 26 25  1  0  0  0  0
 27 25  1  0  0  0  0
 29 31  1  0  0  0  0
 29 30  1  0  0  0  0
 32 34  1  0  0  0  0
 32 29  1  0  0  0  0
 33 32  1  0  0  0  0
 35 32  1  0  0  0  0
 36 39  1  0  0  0  0
 36  4  1  0  0  0  0
 37 36  1  0  0  0  0
 38 36  1  0  0  0  0
 39 42  1  0  0  0  0
 39 40  1  0  0  0  0
 41 39  1  0  0  0  0
M  ZBO  1   2   0
M  END
