1
 OpenBabel05122313063D

 28 27  0  0  0  0  0  0  0  0999 V2000
    1.5855   -0.0799   -0.6652 Si  0  0  0  0  0  3  0  0  0  0  0  0
    2.7275   -2.0088    0.1228 Si  0  0  0  0  0  0  0  0  0  0  0  0
    3.0169    1.7832   -0.4249 Si  0  0  0  0  0  0  0  0  0  0  0  0
    2.7669   -2.1761    2.0189 C   0  0  0  0  0  0  0  0  0  0  0  0
    1.8389   -3.5399   -0.5726 C   0  0  0  0  0  0  0  0  0  0  0  0
    4.5330   -2.0295   -0.4846 C   0  0  0  0  0  0  0  0  0  0  0  0
    3.6749    1.9648    1.3540 C   0  0  0  0  0  0  0  0  0  0  0  0
    2.0980    3.3873   -0.8999 C   0  0  0  0  0  0  0  0  0  0  0  0
    4.5078    1.6368   -1.5969 C   0  0  0  0  0  0  0  0  0  0  0  0
    1.6974   -0.3447   -2.1651 H   0  0  0  0  0  0  0  0  0  0  0  0
    3.3373   -3.0865    2.3003 H   0  0  0  0  0  0  0  0  0  0  0  0
    3.2597   -1.3100    2.5067 H   0  0  0  0  0  0  0  0  0  0  0  0
    1.7436   -2.2762    2.4329 H   0  0  0  0  0  0  0  0  0  0  0  0
    0.8021   -3.5855   -0.1806 H   0  0  0  0  0  0  0  0  0  0  0  0
    1.7870   -3.5027   -1.6798 H   0  0  0  0  0  0  0  0  0  0  0  0
    2.3682   -4.4722   -0.2822 H   0  0  0  0  0  0  0  0  0  0  0  0
    4.5894   -1.8965   -1.5839 H   0  0  0  0  0  0  0  0  0  0  0  0
    5.0160   -2.9964   -0.2267 H   0  0  0  0  0  0  0  0  0  0  0  0
    5.1229   -1.2174   -0.0126 H   0  0  0  0  0  0  0  0  0  0  0  0
    4.1827    1.0352    1.6844 H   0  0  0  0  0  0  0  0  0  0  0  0
    4.4146    2.7916    1.4064 H   0  0  0  0  0  0  0  0  0  0  0  0
    2.8699    2.1889    2.0825 H   0  0  0  0  0  0  0  0  0  0  0  0
    2.7523    4.2750   -0.7677 H   0  0  0  0  0  0  0  0  0  0  0  0
    1.1834    3.5425   -0.2914 H   0  0  0  0  0  0  0  0  0  0  0  0
    1.7883    3.3511   -1.9648 H   0  0  0  0  0  0  0  0  0  0  0  0
    4.1683    1.5358   -2.6479 H   0  0  0  0  0  0  0  0  0  0  0  0
    5.1524    2.5390   -1.5268 H   0  0  0  0  0  0  0  0  0  0  0  0
    5.1259    0.7492   -1.3569 H   0  0  0  0  0  0  0  0  0  0  0  0
  1  3  1  0  0  0  0
  1  2  1  0  0  0  0
  2  4  1  0  0  0  0
  3  7  1  0  0  0  0
  4 11  1  0  0  0  0
  4 13  1  0  0  0  0
  4 12  1  0  0  0  0
  5 16  1  0  0  0  0
  5 14  1  0  0  0  0
  5  2  1  0  0  0  0
  6 18  1  0  0  0  0
  6 19  1  0  0  0  0
  6  2  1  0  0  0  0
  7 21  1  0  0  0  0
  7 20  1  0  0  0  0
  7 22  1  0  0  0  0
  8 23  1  0  0  0  0
  8  3  1  0  0  0  0
  8 24  1  0  0  0  0
  9 27  1  0  0  0  0
  9 28  1  0  0  0  0
  9  3  1  0  0  0  0
 10  1  1  0  0  0  0
 15  5  1  0  0  0  0
 17  6  1  0  0  0  0
 25  8  1  0  0  0  0
 26  9  1  0  0  0  0
M  END
