1
 OpenBabel05122313063D

 63 69  0  0  1  0  0  0  0  0999 V2000
   -0.2280   -1.1894    0.6819 Si  0  0  2  0  0  3  0  0  0  0  0  0
   -0.3945   -2.2853    2.2308 C   0  0  0  0  0  0  0  0  0  0  0  0
   -1.4041   -2.7401    2.2824 H   0  0  0  0  0  0  0  0  0  0  0  0
   -0.2146   -1.7205    3.1658 H   0  0  0  0  0  0  0  0  0  0  0  0
    0.3447   -3.1100    2.1671 H   0  0  0  0  0  0  0  0  0  0  0  0
    1.3550   -0.0135    0.8615 C   0  0  1  0  0  0  0  0  0  0  0  0
    0.9654    1.0684   -0.1624 C   0  0  0  0  0  0  0  0  0  0  0  0
   -0.3800    1.3590   -0.1286 C   0  0  0  0  0  0  0  0  0  0  0  0
   -1.1248    0.5685    0.9622 C   0  0  2  0  0  0  0  0  0  0  0  0
   -0.4065    0.9172    2.2679 C   0  0  0  0  0  0  0  0  0  0  0  0
   -0.9351    1.5467    3.4041 C   0  0  0  0  0  0  0  0  0  0  0  0
   -1.9998    1.8218    3.4391 H   0  0  0  0  0  0  0  0  0  0  0  0
   -0.0928    1.8407    4.4926 C   0  0  0  0  0  0  0  0  0  0  0  0
   -0.5059    2.3443    5.3799 H   0  0  0  0  0  0  0  0  0  0  0  0
    1.2693    1.5066    4.4449 C   0  0  0  0  0  0  0  0  0  0  0  0
    1.9252    1.7465    5.2956 H   0  0  0  0  0  0  0  0  0  0  0  0
    1.8087    0.8786    3.3068 C   0  0  0  0  0  0  0  0  0  0  0  0
    2.8804    0.6337    3.2670 H   0  0  0  0  0  0  0  0  0  0  0  0
    0.9776    0.5847    2.2159 C   0  0  0  0  0  0  0  0  0  0  0  0
    2.6374   -0.7821    0.7101 C   0  0  0  0  0  0  0  0  0  0  0  0
    3.3325   -0.8454   -0.5197 C   0  0  0  0  0  0  0  0  0  0  0  0
    2.9854   -0.2503   -1.3738 H   0  0  0  0  0  0  0  0  0  0  0  0
    4.4608   -1.6629   -0.6736 C   0  0  0  0  0  0  0  0  0  0  0  0
    4.9791   -1.6871   -1.6445 H   0  0  0  0  0  0  0  0  0  0  0  0
    4.9260   -2.4468    0.3922 C   0  0  0  0  0  0  0  0  0  0  0  0
    5.8114   -3.0885    0.2689 H   0  0  0  0  0  0  0  0  0  0  0  0
    4.2374   -2.4116    1.6142 C   0  0  0  0  0  0  0  0  0  0  0  0
    4.5758   -3.0333    2.4575 H   0  0  0  0  0  0  0  0  0  0  0  0
    3.1095   -1.5944    1.7692 C   0  0  0  0  0  0  0  0  0  0  0  0
    2.5685   -1.6035    2.7262 H   0  0  0  0  0  0  0  0  0  0  0  0
    2.0123    1.9240   -0.7746 C   0  0  0  0  0  0  0  0  0  0  0  0
    2.0435    2.2759   -2.1419 C   0  0  0  0  0  0  0  0  0  0  0  0
    1.2956    1.8565   -2.8232 H   0  0  0  0  0  0  0  0  0  0  0  0
    3.0511    3.1112   -2.6472 C   0  0  0  0  0  0  0  0  0  0  0  0
    3.0556    3.3655   -3.7183 H   0  0  0  0  0  0  0  0  0  0  0  0
    4.0512    3.6118   -1.8012 C   0  0  0  0  0  0  0  0  0  0  0  0
    4.8414    4.2660   -2.2001 H   0  0  0  0  0  0  0  0  0  0  0  0
    4.0395    3.2620   -0.4409 C   0  0  0  0  0  0  0  0  0  0  0  0
    4.8191    3.6452    0.2354 H   0  0  0  0  0  0  0  0  0  0  0  0
    3.0383    2.4244    0.0642 C   0  0  0  0  0  0  0  0  0  0  0  0
    3.0349    2.1608    1.1313 H   0  0  0  0  0  0  0  0  0  0  0  0
   -1.0135    2.5275   -0.7857 C   0  0  0  0  0  0  0  0  0  0  0  0
   -1.5117    3.5814    0.0139 C   0  0  0  0  0  0  0  0  0  0  0  0
   -1.3966    3.5230    1.1067 H   0  0  0  0  0  0  0  0  0  0  0  0
   -2.1336    4.6914   -0.5722 C   0  0  0  0  0  0  0  0  0  0  0  0
   -2.5053    5.5077    0.0660 H   0  0  0  0  0  0  0  0  0  0  0  0
   -2.2824    4.7659   -1.9672 C   0  0  0  0  0  0  0  0  0  0  0  0
   -2.7739    5.6373   -2.4260 H   0  0  0  0  0  0  0  0  0  0  0  0
   -1.8043    3.7201   -2.7712 C   0  0  0  0  0  0  0  0  0  0  0  0
   -1.9235    3.7653   -3.8647 H   0  0  0  0  0  0  0  0  0  0  0  0
   -1.1764    2.6101   -2.1859 C   0  0  0  0  0  0  0  0  0  0  0  0
   -0.8349    1.7742   -2.8132 H   0  0  0  0  0  0  0  0  0  0  0  0
   -2.6219    0.4526    0.9839 C   0  0  0  0  0  0  0  0  0  0  0  0
   -3.2533   -0.1472    2.1043 C   0  0  0  0  0  0  0  0  0  0  0  0
   -2.6439   -0.4390    2.9714 H   0  0  0  0  0  0  0  0  0  0  0  0
   -4.6306   -0.4070    2.1198 C   0  0  0  0  0  0  0  0  0  0  0  0
   -5.0825   -0.8785    3.0062 H   0  0  0  0  0  0  0  0  0  0  0  0
   -5.4286   -0.0771    1.0122 C   0  0  0  0  0  0  0  0  0  0  0  0
   -6.5099   -0.2806    1.0211 H   0  0  0  0  0  0  0  0  0  0  0  0
   -4.8226    0.5161   -0.1050 C   0  0  0  0  0  0  0  0  0  0  0  0
   -5.4293    0.7831   -0.9842 H   0  0  0  0  0  0  0  0  0  0  0  0
   -3.4439    0.7775   -0.1199 C   0  0  0  0  0  0  0  0  0  0  0  0
   -3.0004    1.2367   -1.0114 H   0  0  0  0  0  0  0  0  0  0  0  0
  1  6  1  0  0  0  0
  1  9  1  0  0  0  0
  1  2  1  1  0  0  0
  2  3  1  0  0  0  0
  2  4  1  0  0  0  0
  5  2  1  0  0  0  0
  6 20  1  6  0  0  0
  6 19  1  0  0  0  0
  7  8  2  0  0  0  0
  7  6  1  0  0  0  0
  8  9  1  0  0  0  0
  9 53  1  6  0  0  0
  9 10  1  0  0  0  0
 10 11  1  0  0  0  0
 11 12  1  0  0  0  0
 11 13  2  0  0  0  0
 13 14  1  0  0  0  0
 15 13  1  0  0  0  0
 15 16  1  0  0  0  0
 17 15  2  0  0  0  0
 18 17  1  0  0  0  0
 19 10  2  0  0  0  0
 19 17  1  0  0  0  0
 20 29  1  0  0  0  0
 21 20  2  0  0  0  0
 22 21  1  0  0  0  0
 23 21  1  0  0  0  0
 23 25  2  0  0  0  0
 24 23  1  0  0  0  0
 25 27  1  0  0  0  0
 26 25  1  0  0  0  0
 27 29  2  0  0  0  0
 27 28  1  0  0  0  0
 29 30  1  0  0  0  0
 31  7  1  0  0  0  0
 31 40  1  0  0  0  0
 32 31  2  0  0  0  0
 33 32  1  0  0  0  0
 34 32  1  0  0  0  0
 34 36  2  0  0  0  0
 35 34  1  0  0  0  0
 36 38  1  0  0  0  0
 37 36  1  0  0  0  0
 38 40  2  0  0  0  0
 38 39  1  0  0  0  0
 40 41  1  0  0  0  0
 42  8  1  0  0  0  0
 42 43  1  0  0  0  0
 43 44  1  0  0  0  0
 45 43  2  0  0  0  0
 45 46  1  0  0  0  0
 47 45  1  0  0  0  0
 48 47  1  0  0  0  0
 49 51  1  0  0  0  0
 49 47  2  0  0  0  0
 50 49  1  0  0  0  0
 51 42  2  0  0  0  0
 52 51  1  0  0  0  0
 53 54  1  0  0  0  0
 54 56  2  0  0  0  0
 54 55  1  0  0  0  0
 56 57  1  0  0  0  0
 58 59  1  0  0  0  0
 58 56  1  0  0  0  0
 60 58  2  0  0  0  0
 61 60  1  0  0  0  0
 62 60  1  0  0  0  0
 62 53  2  0  0  0  0
 63 62  1  0  0  0  0
M  END
