1
 OpenBabel05122313063D

 32 31  0  0  0  0  0  0  0  0999 V2000
    0.7474    0.7253   -0.2064 Si  0  0  0  0  0  3  0  0  0  0  0  0
    0.1885    2.3273    1.0783 Cl  0  0  0  0  0  0  0  0  0  0  0  0
    0.2145    1.4777   -2.1244 Cl  0  0  0  0  0  0  0  0  0  0  0  0
   -2.2061   -0.3363    0.0979 P   0  0  0  0  0  4  0  0  0  0  0  0
   -0.6279   -0.3633    0.0631 O   0  0  0  0  0  0  0  0  0  0  0  0
   -2.9931    0.7362   -0.9047 N   0  0  0  0  0  0  0  0  0  0  0  0
   -2.9224    2.1827   -0.6700 C   0  0  0  0  0  0  0  0  0  0  0  0
   -3.3193    0.3658   -2.2811 C   0  0  0  0  0  0  0  0  0  0  0  0
   -2.6880    0.0614    1.6356 N   0  0  0  0  0  0  0  0  0  0  0  0
   -3.9794    0.6507    1.9632 C   0  0  0  0  0  0  0  0  0  0  0  0
   -1.8161   -0.2199    2.7782 C   0  0  0  0  0  0  0  0  0  0  0  0
   -2.6064   -1.8910   -0.3443 N   0  0  0  0  0  0  0  0  0  0  0  0
   -1.7635   -2.7292   -1.1951 C   0  0  0  0  0  0  0  0  0  0  0  0
   -3.9241   -2.4187   -0.0245 C   0  0  0  0  0  0  0  0  0  0  0  0
   -3.9371    2.6276   -0.7509 H   0  0  0  0  0  0  0  0  0  0  0  0
   -2.5053    2.3938    0.3307 H   0  0  0  0  0  0  0  0  0  0  0  0
   -2.2475    2.6597   -1.4106 H   0  0  0  0  0  0  0  0  0  0  0  0
   -4.2848    0.8329   -2.5671 H   0  0  0  0  0  0  0  0  0  0  0  0
   -2.5301    0.7090   -2.9846 H   0  0  0  0  0  0  0  0  0  0  0  0
   -3.4230   -0.7304   -2.3733 H   0  0  0  0  0  0  0  0  0  0  0  0
   -4.5349    0.0002    2.6744 H   0  0  0  0  0  0  0  0  0  0  0  0
   -4.5907    0.7777    1.0516 H   0  0  0  0  0  0  0  0  0  0  0  0
   -3.8482    1.6466    2.4406 H   0  0  0  0  0  0  0  0  0  0  0  0
   -2.3360   -0.8797    3.5054 H   0  0  0  0  0  0  0  0  0  0  0  0
   -1.5322    0.7268    3.2838 H   0  0  0  0  0  0  0  0  0  0  0  0
   -0.8831   -0.7128    2.4548 H   0  0  0  0  0  0  0  0  0  0  0  0
   -2.2530   -2.9253   -2.1754 H   0  0  0  0  0  0  0  0  0  0  0  0
   -1.5774   -3.7050   -0.6980 H   0  0  0  0  0  0  0  0  0  0  0  0
   -0.7869   -2.2486   -1.3780 H   0  0  0  0  0  0  0  0  0  0  0  0
   -3.8288   -3.4406    0.4013 H   0  0  0  0  0  0  0  0  0  0  0  0
   -4.4258   -1.7860    0.7316 H   0  0  0  0  0  0  0  0  0  0  0  0
   -4.5826   -2.4801   -0.9214 H   0  0  0  0  0  0  0  0  0  0  0  0
  1  5  1  0  0  0  0
  1  2  1  0  0  0  0
  3  1  1  0  0  0  0
  4  9  1  0  0  0  0
  5  4  1  0  0  0  0
  6  7  1  0  0  0  0
  6  4  1  0  0  0  0
  7 16  1  0  0  0  0
  8  6  1  0  0  0  0
  9 10  1  0  0  0  0
  9 11  1  0  0  0  0
 10 23  1  0  0  0  0
 10 21  1  0  0  0  0
 11 25  1  0  0  0  0
 11 24  1  0  0  0  0
 12 14  1  0  0  0  0
 12  4  1  0  0  0  0
 13 28  1  0  0  0  0
 13 12  1  0  0  0  0
 14 30  1  0  0  0  0
 14 31  1  0  0  0  0
 15  7  1  0  0  0  0
 17  7  1  0  0  0  0
 18  8  1  0  0  0  0
 19  8  1  0  0  0  0
 20  8  1  0  0  0  0
 22 10  1  0  0  0  0
 26 11  1  0  0  0  0
 27 13  1  0  0  0  0
 29 13  1  0  0  0  0
 32 14  1  0  0  0  0
M  END
