1
 OpenBabel05122313063D

 40 42  0  0  0  0  0  0  0  0999 V2000
    0.9691    0.0840    0.0312 Si  0  0  0  0  0  0  0  0  0  0  0  0
    1.7469   -1.1649    1.8610 Si  0  0  0  0  0  0  0  0  0  0  0  0
    2.2204    2.0672   -0.0722 Si  0  0  0  0  0  0  0  0  0  0  0  0
    1.4629   -1.1630   -1.8999 Si  0  0  0  0  0  0  0  0  0  0  0  0
    1.0457   -0.4539    3.4844 C   0  0  0  0  0  0  0  0  0  0  0  0
   -0.0634   -0.4833    3.4720 H   0  0  0  0  0  0  0  0  0  0  0  0
    1.3502    0.6042    3.6182 H   0  0  0  0  0  0  0  0  0  0  0  0
    1.4009   -1.0298    4.3657 H   0  0  0  0  0  0  0  0  0  0  0  0
    3.6473   -1.1915    2.0122 C   0  0  0  0  0  0  0  0  0  0  0  0
    4.0426   -0.1689    2.1827 H   0  0  0  0  0  0  0  0  0  0  0  0
    4.1165   -1.5826    1.0868 H   0  0  0  0  0  0  0  0  0  0  0  0
    3.9727   -1.8283    2.8625 H   0  0  0  0  0  0  0  0  0  0  0  0
    1.1447   -2.9708    1.7234 C   0  0  0  0  0  0  0  0  0  0  0  0
    1.4395   -3.5606    2.6174 H   0  0  0  0  0  0  0  0  0  0  0  0
    1.5727   -3.4693    0.8295 H   0  0  0  0  0  0  0  0  0  0  0  0
    0.0390   -3.0092    1.6347 H   0  0  0  0  0  0  0  0  0  0  0  0
    3.9947    1.7803   -0.7062 C   0  0  0  0  0  0  0  0  0  0  0  0
    3.9843    1.3779   -1.7400 H   0  0  0  0  0  0  0  0  0  0  0  0
    4.5293    1.0487   -0.0668 H   0  0  0  0  0  0  0  0  0  0  0  0
    4.5774    2.7261   -0.7133 H   0  0  0  0  0  0  0  0  0  0  0  0
    2.3358    2.8734    1.6515 C   0  0  0  0  0  0  0  0  0  0  0  0
    2.8553    3.8540    1.6012 H   0  0  0  0  0  0  0  0  0  0  0  0
    2.8979    2.2258    2.3556 H   0  0  0  0  0  0  0  0  0  0  0  0
    1.3256    3.0373    2.0796 H   0  0  0  0  0  0  0  0  0  0  0  0
    1.3707    3.3091   -1.2429 C   0  0  0  0  0  0  0  0  0  0  0  0
    1.9420    4.2591   -1.3151 H   0  0  0  0  0  0  0  0  0  0  0  0
    0.3488    3.5433   -0.8787 H   0  0  0  0  0  0  0  0  0  0  0  0
    1.2726    2.8851   -2.2632 H   0  0  0  0  0  0  0  0  0  0  0  0
    1.3504   -0.0539   -3.4465 C   0  0  0  0  0  0  0  0  0  0  0  0
    1.4892   -0.6456   -4.3764 H   0  0  0  0  0  0  0  0  0  0  0  0
    2.1262    0.7389   -3.4282 H   0  0  0  0  0  0  0  0  0  0  0  0
    0.3607    0.4453   -3.4973 H   0  0  0  0  0  0  0  0  0  0  0  0
    3.1826   -1.9856   -1.8882 C   0  0  0  0  0  0  0  0  0  0  0  0
    3.2683   -2.7114   -1.0534 H   0  0  0  0  0  0  0  0  0  0  0  0
    3.9827   -1.2288   -1.7581 H   0  0  0  0  0  0  0  0  0  0  0  0
    3.3731   -2.5320   -2.8366 H   0  0  0  0  0  0  0  0  0  0  0  0
    0.1584   -2.5440   -2.1053 C   0  0  0  0  0  0  0  0  0  0  0  0
   -0.8538   -2.0947   -2.1841 H   0  0  0  0  0  0  0  0  0  0  0  0
    0.1589   -3.2251   -1.2294 H   0  0  0  0  0  0  0  0  0  0  0  0
    0.3427   -3.1523   -3.0166 H   0  0  0  0  0  0  0  0  0  0  0  0
  1  2  1  0  0  0  0
  1 37  1  0  0  0  0
  1 25  1  0  0  0  0
  1  5  1  0  0  0  0
  2  9  1  0  0  0  0
  2  5  1  0  0  0  0
  3  1  1  0  0  0  0
  3 21  1  0  0  0  0
  4 33  1  0  0  0  0
  4  1  1  0  0  0  0
  5  7  1  0  0  0  0
  5  8  1  0  0  0  0
  6  5  1  0  0  0  0
  9 10  1  0  0  0  0
  9 12  1  0  0  0  0
 11  9  1  0  0  0  0
 13  2  1  0  0  0  0
 13 14  1  0  0  0  0
 15 13  1  0  0  0  0
 16 13  1  0  0  0  0
 17  3  1  0  0  0  0
 17 19  1  0  0  0  0
 18 17  1  0  0  0  0
 20 17  1  0  0  0  0
 21 24  1  0  0  0  0
 21 23  1  0  0  0  0
 22 21  1  0  0  0  0
 25 27  1  0  0  0  0
 25  3  1  0  0  0  0
 26 25  1  0  0  0  0
 28 25  1  0  0  0  0
 29 31  1  0  0  0  0
 29  4  1  0  0  0  0
 30 29  1  0  0  0  0
 32 29  1  0  0  0  0
 33 35  1  0  0  0  0
 33 34  1  0  0  0  0
 36 33  1  0  0  0  0
 37  4  1  0  0  0  0
 37 39  1  0  0  0  0
 38 37  1  0  0  0  0
 40 37  1  0  0  0  0
M  ZBO  3   2   0   3   0   4   0
M  END
