1
 OpenBabel05122313063D

 16 15  0  0  0  0  0  0  0  0999 V2000
   -2.0957    0.1960   -0.0981 Si  0  0  0  0  0  3  0  0  0  0  0  0
   -3.2474    1.6636   -0.5915 C   0  0  0  0  0  0  0  0  0  0  0  0
   -2.6133    2.5462   -0.8091 H   0  0  0  0  0  0  0  0  0  0  0  0
   -3.7507    1.4094   -1.5515 H   0  0  0  0  0  0  0  0  0  0  0  0
   -4.2942    2.0109    0.4765 C   0  0  0  0  0  0  0  0  0  0  0  0
   -4.9372    2.8650    0.1753 H   0  0  0  0  0  0  0  0  0  0  0  0
   -3.8159    2.2867    1.4404 H   0  0  0  0  0  0  0  0  0  0  0  0
   -4.9708    1.1557    0.6858 H   0  0  0  0  0  0  0  0  0  0  0  0
   -3.3560   -1.2729   -0.0353 C   0  0  0  0  0  0  0  0  0  0  0  0
   -2.7813   -2.2075    0.1344 H   0  0  0  0  0  0  0  0  0  0  0  0
   -3.9705   -1.1355    0.8848 H   0  0  0  0  0  0  0  0  0  0  0  0
   -4.2793   -1.4300   -1.2519 C   0  0  0  0  0  0  0  0  0  0  0  0
   -4.9374   -2.3210   -1.1654 H   0  0  0  0  0  0  0  0  0  0  0  0
   -3.7012   -1.5421   -2.1937 H   0  0  0  0  0  0  0  0  0  0  0  0
   -4.9407   -0.5497   -1.3838 H   0  0  0  0  0  0  0  0  0  0  0  0
   -1.0056    0.0953   -1.4185 H   0  0  0  0  0  0  0  0  0  0  0  0
  1  9  1  0  0  0  0
  2  1  1  0  0  0  0
  2  5  1  0  0  0  0
  3  2  1  0  0  0  0
  4  2  1  0  0  0  0
  5  8  1  0  0  0  0
  5  7  1  0  0  0  0
  6  5  1  0  0  0  0
  9 10  1  0  0  0  0
  9 11  1  0  0  0  0
 12 13  1  0  0  0  0
 12  9  1  0  0  0  0
 14 12  1  0  0  0  0
 15 12  1  0  0  0  0
 16  1  1  0  0  0  0
M  END
