3
 OpenBabel05122313063D

 68 70  0  0  1  0  0  0  0  0999 V2000
    0.1265    1.4724   -2.3935 Cl  0  0  0  0  0  0  0  0  0  0  0  0
   -1.6759   -1.2401   -2.0824 Cl  0  0  0  0  0  0  0  0  0  0  0  0
    0.1132   -0.3812   -1.2927 Si  0  0  0  0  0  3  0  0  0  0  0  0
   -1.7848    0.2976    1.0117 N   0  0  0  0  0  0  0  0  0  0  0  0
    0.2766    0.8707    1.3917 N   0  0  0  0  0  0  0  0  0  0  0  0
   -0.5443    0.3287    0.4339 C   0  0  1  0  0  3  0  0  0  0  0  0
    1.6866    1.1841    1.2658 C   0  0  0  0  0  0  0  0  0  0  0  0
    2.0438    2.4178    0.6657 C   0  0  0  0  0  0  0  0  0  0  0  0
    0.6210    4.3484    1.4282 C   0  0  0  0  0  0  0  0  0  0  0  0
    1.0014    3.4456    0.2374 C   0  0  0  0  0  0  0  0  0  0  0  0
    3.4179    2.7097    0.5737 C   0  0  0  0  0  0  0  0  0  0  0  0
    1.4390    4.2994   -0.9593 C   0  0  0  0  0  0  0  0  0  0  0  0
    4.3797    1.8346    1.0916 C   0  0  0  0  0  0  0  0  0  0  0  0
    3.9879    0.6541    1.7321 C   0  0  0  0  0  0  0  0  0  0  0  0
    2.6309    0.2958    1.8367 C   0  0  0  0  0  0  0  0  0  0  0  0
    2.2233   -0.9448    2.6219 C   0  0  0  0  0  0  0  0  0  0  0  0
    3.1462   -2.1473    2.3782 C   0  0  0  0  0  0  0  0  0  0  0  0
    2.1601   -0.6257    4.1293 C   0  0  0  0  0  0  0  0  0  0  0  0
   -0.4405    1.1648    2.5402 C   0  0  0  0  0  0  0  0  0  0  0  0
   -1.7379    0.8002    2.3038 C   0  0  0  0  0  0  0  0  0  0  0  0
   -3.0560   -0.0697    0.4227 C   0  0  0  0  0  0  0  0  0  0  0  0
   -3.1265    2.2659   -0.6508 C   0  0  0  0  0  0  0  0  0  0  0  0
   -3.3044    2.6632   -2.1229 C   0  0  0  0  0  0  0  0  0  0  0  0
   -3.6714    3.3436    0.3038 C   0  0  0  0  0  0  0  0  0  0  0  0
   -5.0199    0.5658   -0.8085 C   0  0  0  0  0  0  0  0  0  0  0  0
   -5.5837   -0.6850   -0.5274 C   0  0  0  0  0  0  0  0  0  0  0  0
   -4.8686   -1.6330    0.2135 C   0  0  0  0  0  0  0  0  0  0  0  0
   -3.5802   -1.3503    0.7032 C   0  0  0  0  0  0  0  0  0  0  0  0
   -2.7877   -2.4026    1.4656 C   0  0  0  0  0  0  0  0  0  0  0  0
   -2.7308   -3.7347    0.7012 C   0  0  0  0  0  0  0  0  0  0  0  0
   -3.3368   -2.5887    2.8909 C   0  0  0  0  0  0  0  0  0  0  0  0
   -3.7374    0.9051   -0.3417 C   0  0  0  0  0  0  0  0  0  0  0  0
    1.5012    4.9246    1.7810 H   0  0  0  0  0  0  0  0  0  0  0  0
    0.2327    3.7686    2.2881 H   0  0  0  0  0  0  0  0  0  0  0  0
   -0.1650    5.0721    1.1291 H   0  0  0  0  0  0  0  0  0  0  0  0
    0.0946    2.8919   -0.0786 H   0  0  0  0  0  0  0  0  0  0  0  0
    3.7369    3.6484    0.0999 H   0  0  0  0  0  0  0  0  0  0  0  0
    2.2592    4.9975   -0.6925 H   0  0  0  0  0  0  0  0  0  0  0  0
    0.5887    4.9172   -1.3114 H   0  0  0  0  0  0  0  0  0  0  0  0
    1.7705    3.6668   -1.8043 H   0  0  0  0  0  0  0  0  0  0  0  0
    5.4484    2.0839    1.0074 H   0  0  0  0  0  0  0  0  0  0  0  0
    4.7506   -0.0127    2.1591 H   0  0  0  0  0  0  0  0  0  0  0  0
    1.2093   -1.2413    2.2876 H   0  0  0  0  0  0  0  0  0  0  0  0
    3.2733   -2.3250    1.2941 H   0  0  0  0  0  0  0  0  0  0  0  0
    2.7026   -3.0584    2.8250 H   0  0  0  0  0  0  0  0  0  0  0  0
    4.1450   -2.0014    2.8394 H   0  0  0  0  0  0  0  0  0  0  0  0
    3.1585   -0.3232    4.5077 H   0  0  0  0  0  0  0  0  0  0  0  0
    1.8361   -1.5199    4.6997 H   0  0  0  0  0  0  0  0  0  0  0  0
    1.4556    0.1966    4.3626 H   0  0  0  0  0  0  0  0  0  0  0  0
    0.0387    1.6113    3.4143 H   0  0  0  0  0  0  0  0  0  0  0  0
   -2.6361    0.8563    2.9242 H   0  0  0  0  0  0  0  0  0  0  0  0
   -2.0334    2.1913   -0.4826 H   0  0  0  0  0  0  0  0  0  0  0  0
   -2.7373    3.5915   -2.3364 H   0  0  0  0  0  0  0  0  0  0  0  0
   -4.3670    2.8576   -2.3762 H   0  0  0  0  0  0  0  0  0  0  0  0
   -2.9193    1.8696   -2.7915 H   0  0  0  0  0  0  0  0  0  0  0  0
   -3.4844    3.0829    1.3653 H   0  0  0  0  0  0  0  0  0  0  0  0
   -4.7668    3.4697    0.1772 H   0  0  0  0  0  0  0  0  0  0  0  0
   -3.1897    4.3230    0.1043 H   0  0  0  0  0  0  0  0  0  0  0  0
   -5.5825    1.2939   -1.4108 H   0  0  0  0  0  0  0  0  0  0  0  0
   -6.5889   -0.9287   -0.9038 H   0  0  0  0  0  0  0  0  0  0  0  0
   -5.3096   -2.6224    0.4048 H   0  0  0  0  0  0  0  0  0  0  0  0
   -1.7408   -2.0492    1.5496 H   0  0  0  0  0  0  0  0  0  0  0  0
   -2.3587   -3.5762   -0.3290 H   0  0  0  0  0  0  0  0  0  0  0  0
   -3.7260   -4.2230    0.6478 H   0  0  0  0  0  0  0  0  0  0  0  0
   -2.0339   -4.4304    1.2077 H   0  0  0  0  0  0  0  0  0  0  0  0
   -2.7346   -3.3372    3.4447 H   0  0  0  0  0  0  0  0  0  0  0  0
   -4.3877   -2.9455    2.8713 H   0  0  0  0  0  0  0  0  0  0  0  0
   -3.3176   -1.6415    3.4680 H   0  0  0  0  0  0  0  0  0  0  0  0
  1  3  1  0  0  0  0
  2  3  1  0  0  0  0
  4 20  1  0  0  0  0
  5 19  1  0  0  0  0
  6  3  1  1  0  0  0
  6  4  1  0  0  0  0
  6  5  1  0  0  0  0
  7  5  1  0  0  0  0
  7 15  1  0  0  0  0
  8  7  2  0  0  0  0
  9 33  1  0  0  0  0
  9 34  1  0  0  0  0
 10  8  1  0  0  0  0
 10  9  1  0  0  0  0
 11  8  1  0  0  0  0
 11 13  2  0  0  0  0
 12 38  1  0  0  0  0
 12 10  1  0  0  0  0
 13 14  1  0  0  0  0
 14 15  2  0  0  0  0
 14 42  1  0  0  0  0
 15 16  1  0  0  0  0
 16 18  1  0  0  0  0
 17 16  1  0  0  0  0
 17 45  1  0  0  0  0
 17 46  1  0  0  0  0
 18 49  1  0  0  0  0
 18 47  1  0  0  0  0
 18 48  1  0  0  0  0
 19 50  1  0  0  0  0
 20 19  2  0  0  0  0
 20 51  1  0  0  0  0
 21 28  1  0  0  0  0
 21  4  1  0  0  0  0
 22 52  1  0  0  0  0
 22 32  1  0  0  0  0
 22 24  1  0  0  0  0
 23 22  1  0  0  0  0
 24 56  1  0  0  0  0
 25 26  2  0  0  0  0
 25 32  1  0  0  0  0
 26 27  1  0  0  0  0
 27 61  1  0  0  0  0
 27 28  2  0  0  0  0
 28 29  1  0  0  0  0
 29 62  1  0  0  0  0
 29 31  1  0  0  0  0
 30 65  1  0  0  0  0
 30 29  1  0  0  0  0
 31 66  1  0  0  0  0
 31 68  1  0  0  0  0
 32 21  2  0  0  0  0
 35  9  1  0  0  0  0
 36 10  1  0  0  0  0
 37 11  1  0  0  0  0
 39 12  1  0  0  0  0
 40 12  1  0  0  0  0
 41 13  1  0  0  0  0
 43 16  1  0  0  0  0
 44 17  1  0  0  0  0
 53 23  1  0  0  0  0
 54 23  1  0  0  0  0
 55 23  1  0  0  0  0
 57 24  1  0  0  0  0
 58 24  1  0  0  0  0
 59 25  1  0  0  0  0
 60 26  1  0  0  0  0
 63 30  1  0  0  0  0
 64 30  1  0  0  0  0
 67 31  1  0  0  0  0
M  END
