2
 OpenBabel05122313063D

 28 27  0  0  0  0  0  0  0  0999 V2000
   -2.5226   -0.3617    2.1844 Cl  0  0  0  0  0  0  0  0  0  0  0  0
   -1.9032   -0.2172    0.0748 Si  0  0  0  0  0  3  0  0  0  0  0  0
   -2.9866    1.3348   -0.4955 C   0  0  0  0  0  0  0  0  0  0  0  0
   -2.6520    1.6738   -1.9574 C   0  0  0  0  0  0  0  0  0  0  0  0
   -2.5845    2.5247    0.3917 C   0  0  0  0  0  0  0  0  0  0  0  0
   -4.5033    1.1296   -0.3548 C   0  0  0  0  0  0  0  0  0  0  0  0
   -2.6734   -1.9084   -0.6214 C   0  0  0  0  0  0  0  0  0  0  0  0
   -1.7723   -3.0949   -0.2321 C   0  0  0  0  0  0  0  0  0  0  0  0
   -2.7430   -1.8362   -2.1585 C   0  0  0  0  0  0  0  0  0  0  0  0
   -4.0780   -2.2083   -0.0609 C   0  0  0  0  0  0  0  0  0  0  0  0
   -1.5617    1.7906   -2.1028 H   0  0  0  0  0  0  0  0  0  0  0  0
   -3.1370    2.6312   -2.2564 H   0  0  0  0  0  0  0  0  0  0  0  0
   -2.9960    0.8938   -2.6641 H   0  0  0  0  0  0  0  0  0  0  0  0
   -1.4893    2.6815    0.3905 H   0  0  0  0  0  0  0  0  0  0  0  0
   -2.8996    2.3674    1.4418 H   0  0  0  0  0  0  0  0  0  0  0  0
   -3.0677    3.4596    0.0261 H   0  0  0  0  0  0  0  0  0  0  0  0
   -4.7755    0.7822    0.6621 H   0  0  0  0  0  0  0  0  0  0  0  0
   -4.8982    0.3996   -1.0885 H   0  0  0  0  0  0  0  0  0  0  0  0
   -5.0343    2.0917   -0.5380 H   0  0  0  0  0  0  0  0  0  0  0  0
   -2.2483   -4.0482   -0.5557 H   0  0  0  0  0  0  0  0  0  0  0  0
   -1.6167   -3.1495    0.8653 H   0  0  0  0  0  0  0  0  0  0  0  0
   -0.7781   -3.0278   -0.7141 H   0  0  0  0  0  0  0  0  0  0  0  0
   -3.5117   -1.1182   -2.5084 H   0  0  0  0  0  0  0  0  0  0  0  0
   -3.0138   -2.8314   -2.5786 H   0  0  0  0  0  0  0  0  0  0  0  0
   -1.7688   -1.5421   -2.6044 H   0  0  0  0  0  0  0  0  0  0  0  0
   -4.0687   -2.2609    1.0453 H   0  0  0  0  0  0  0  0  0  0  0  0
   -4.4307   -3.1909   -0.4480 H   0  0  0  0  0  0  0  0  0  0  0  0
   -4.8295   -1.4530   -0.3530 H   0  0  0  0  0  0  0  0  0  0  0  0
  2  1  1  0  0  0  0
  3  6  1  0  0  0  0
  3  2  1  0  0  0  0
  3  5  1  0  0  0  0
  4  3  1  0  0  0  0
  5 15  1  0  0  0  0
  6 17  1  0  0  0  0
  7  8  1  0  0  0  0
  7 10  1  0  0  0  0
  7  2  1  0  0  0  0
  8 21  1  0  0  0  0
  9  7  1  0  0  0  0
 10 26  1  0  0  0  0
 11  4  1  0  0  0  0
 12  4  1  0  0  0  0
 13  4  1  0  0  0  0
 14  5  1  0  0  0  0
 16  5  1  0  0  0  0
 18  6  1  0  0  0  0
 19  6  1  0  0  0  0
 20  8  1  0  0  0  0
 22  8  1  0  0  0  0
 23  9  1  0  0  0  0
 24  9  1  0  0  0  0
 25  9  1  0  0  0  0
 27 10  1  0  0  0  0
 28 10  1  0  0  0  0
M  END
