1
q = nan, confidence = 0.0

 20 19  0  0  0  0  0  0  0  0999 V2000
    1.7648    1.2739   -0.5056 Si  0  0  0  0  0  3  0  0  0  0  0  0
    3.9733   -0.7232   -0.4043 C   0  0  0  0  0  0  0  0  0  0  0  0
    3.3265    0.3538    0.1152 C   0  0  0  0  0  0  0  0  0  0  0  0
    3.8218    0.8057    1.0009 H   0  0  0  0  0  0  0  0  0  0  0  0
    5.2464   -1.2684    0.1995 C   0  0  0  0  0  0  0  0  0  0  0  0
    5.5799   -0.6753    1.0734 H   0  0  0  0  0  0  0  0  0  0  0  0
    6.0719   -1.2833   -0.5463 H   0  0  0  0  0  0  0  0  0  0  0  0
    5.1130   -2.3248    0.5262 H   0  0  0  0  0  0  0  0  0  0  0  0
    3.4909   -1.4677   -1.6240 C   0  0  0  0  0  0  0  0  0  0  0  0
    2.4951   -1.1223   -1.9583 H   0  0  0  0  0  0  0  0  0  0  0  0
    3.4254   -2.5600   -1.4217 H   0  0  0  0  0  0  0  0  0  0  0  0
    4.2078   -1.3501   -2.4664 H   0  0  0  0  0  0  0  0  0  0  0  0
    1.9342    2.9175    0.4905 C   0  0  0  0  0  0  0  0  0  0  0  0
    2.9351    3.3580    0.2943 H   0  0  0  0  0  0  0  0  0  0  0  0
    1.8496    2.7668    1.5855 H   0  0  0  0  0  0  0  0  0  0  0  0
    1.1814    3.6770    0.1966 H   0  0  0  0  0  0  0  0  0  0  0  0
    2.2348    1.8337   -2.2795 C   0  0  0  0  0  0  0  0  0  0  0  0
    3.2838    2.1962   -2.2715 H   0  0  0  0  0  0  0  0  0  0  0  0
    1.5897    2.6648   -2.6322 H   0  0  0  0  0  0  0  0  0  0  0  0
    2.1562    1.0146   -3.0212 H   0  0  0  0  0  0  0  0  0  0  0  0
  1  3  1  0  0  0  0
  1 13  1  0  0  0  0
  2  3  2  0  0  0  0
  2  5  1  0  0  0  0
  3  4  1  0  0  0  0
  5  8  1  0  0  0  0
  5  6  1  0  0  0  0
  7  5  1  0  0  0  0
  9 11  1  0  0  0  0
  9  2  1  0  0  0  0
 10  9  1  0  0  0  0
 12  9  1  0  0  0  0
 13 15  1  0  0  0  0
 14 13  1  0  0  0  0
 16 13  1  0  0  0  0
 17 18  1  0  0  0  0
 17  1  1  0  0  0  0
 19 17  1  0  0  0  0
 20 17  1  0  0  0  0
M  END
