1
q = nan, confidence = 0.0

 40 42  0  0  0  0  0  0  0  0999 V2000
   -1.7667    0.0152   -0.0106 Si  0  0  0  0  0  0  0  0  0  0  0  0
   -2.6799    2.0231   -0.8177 Si  0  0  0  0  0  0  0  0  0  0  0  0
   -2.5917   -1.7468   -1.3274 Si  0  0  0  0  0  0  0  0  0  0  0  0
   -2.5705   -0.3011    2.1763 Si  0  0  0  0  0  0  0  0  0  0  0  0
   -2.5274    2.1113   -2.7163 C   0  0  0  0  0  0  0  0  0  0  0  0
   -2.8771    3.0929   -3.1013 H   0  0  0  0  0  0  0  0  0  0  0  0
   -3.1338    1.3191   -3.2016 H   0  0  0  0  0  0  0  0  0  0  0  0
   -1.4735    1.9700   -3.0333 H   0  0  0  0  0  0  0  0  0  0  0  0
   -4.5207    2.2339   -0.3681 C   0  0  0  0  0  0  0  0  0  0  0  0
   -5.1201    1.3812   -0.7474 H   0  0  0  0  0  0  0  0  0  0  0  0
   -4.9357    3.1691   -0.8009 H   0  0  0  0  0  0  0  0  0  0  0  0
   -4.6583    2.2771    0.7320 H   0  0  0  0  0  0  0  0  0  0  0  0
   -1.7269    3.5104   -0.0954 C   0  0  0  0  0  0  0  0  0  0  0  0
   -1.7423    3.4911    1.0135 H   0  0  0  0  0  0  0  0  0  0  0  0
   -2.1653    4.4740   -0.4319 H   0  0  0  0  0  0  0  0  0  0  0  0
   -0.6654    3.4806   -0.4169 H   0  0  0  0  0  0  0  0  0  0  0  0
   -1.7007   -1.7867   -3.0130 C   0  0  0  0  0  0  0  0  0  0  0  0
   -2.0875   -2.6073   -3.6543 H   0  0  0  0  0  0  0  0  0  0  0  0
   -0.6105   -1.9394   -2.8742 H   0  0  0  0  0  0  0  0  0  0  0  0
   -1.8365   -0.8297   -3.5565 H   0  0  0  0  0  0  0  0  0  0  0  0
   -4.4633   -1.6192   -1.6659 C   0  0  0  0  0  0  0  0  0  0  0  0
   -5.0385   -1.5802   -0.7188 H   0  0  0  0  0  0  0  0  0  0  0  0
   -4.8255   -2.4872   -2.2572 H   0  0  0  0  0  0  0  0  0  0  0  0
   -4.6959   -0.6969   -2.2375 H   0  0  0  0  0  0  0  0  0  0  0  0
   -2.2540   -3.4152   -0.4645 C   0  0  0  0  0  0  0  0  0  0  0  0
   -1.1743   -3.5212   -0.2299 H   0  0  0  0  0  0  0  0  0  0  0  0
   -2.5543   -4.2689   -1.1085 H   0  0  0  0  0  0  0  0  0  0  0  0
   -2.8145   -3.4936    0.4898 H   0  0  0  0  0  0  0  0  0  0  0  0
   -1.5348   -1.6357    3.0626 C   0  0  0  0  0  0  0  0  0  0  0  0
   -1.5510   -2.5912    2.4995 H   0  0  0  0  0  0  0  0  0  0  0  0
   -1.9155   -1.8313    4.0878 H   0  0  0  0  0  0  0  0  0  0  0  0
   -0.4769   -1.3097    3.1413 H   0  0  0  0  0  0  0  0  0  0  0  0
   -4.3965   -0.8457    2.2363 C   0  0  0  0  0  0  0  0  0  0  0  0
   -4.7520   -0.9387    3.2847 H   0  0  0  0  0  0  0  0  0  0  0  0
   -4.5314   -1.8300    1.7424 H   0  0  0  0  0  0  0  0  0  0  0  0
   -5.0471   -0.1155    1.7135 H   0  0  0  0  0  0  0  0  0  0  0  0
   -2.4054    1.3117    3.1807 C   0  0  0  0  0  0  0  0  0  0  0  0
   -2.6996    1.1553    4.2404 H   0  0  0  0  0  0  0  0  0  0  0  0
   -3.0501    2.1116    2.7621 H   0  0  0  0  0  0  0  0  0  0  0  0
   -1.3583    1.6784    3.1628 H   0  0  0  0  0  0  0  0  0  0  0  0
  1  4  1  0  0  0  0
  1 25  1  0  0  0  0
  1 29  1  0  0  0  0
  1 13  1  0  0  0  0
  2  9  1  0  0  0  0
  2 13  1  0  0  0  0
  2  1  1  0  0  0  0
  3 25  1  0  0  0  0
  3  1  1  0  0  0  0
  4 33  1  0  0  0  0
  4 29  1  0  0  0  0
  4 37  1  0  0  0  0
  5  2  1  0  0  0  0
  6  5  1  0  0  0  0
  7  5  1  0  0  0  0
  8  5  1  0  0  0  0
  9 12  1  0  0  0  0
 10  9  1  0  0  0  0
 11  9  1  0  0  0  0
 13 14  1  0  0  0  0
 15 13  1  0  0  0  0
 16 13  1  0  0  0  0
 17 19  1  0  0  0  0
 17  3  1  0  0  0  0
 18 17  1  0  0  0  0
 20 17  1  0  0  0  0
 21  3  1  0  0  0  0
 21 22  1  0  0  0  0
 23 21  1  0  0  0  0
 24 21  1  0  0  0  0
 25 26  1  0  0  0  0
 25 28  1  0  0  0  0
 27 25  1  0  0  0  0
 29 32  1  0  0  0  0
 29 31  1  0  0  0  0
 30 29  1  0  0  0  0
 33 34  1  0  0  0  0
 35 33  1  0  0  0  0
 36 33  1  0  0  0  0
 37 38  1  0  0  0  0
 39 37  1  0  0  0  0
 40 37  1  0  0  0  0
M  ZBO  3   2   0   3   0   4   0
M  END
