1
q = nan, confidence = 0.0

 40 42  0  0  0  0  0  0  0  0999 V2000
   -1.1532    0.0162   -0.0039 Si  0  0  0  0  0  0  0  0  0  0  0  0
   -2.1092    1.6781   -1.3657 Si  0  0  0  0  0  0  0  0  0  0  0  0
   -1.9596   -2.0533   -0.7799 Si  0  0  0  0  0  0  0  0  0  0  0  0
   -2.0139    0.3161    2.1649 Si  0  0  0  0  0  0  0  0  0  0  0  0
   -3.9505    1.3577   -1.7437 C   0  0  0  0  0  0  0  0  0  0  0  0
   -4.5406    1.2723   -0.8089 H   0  0  0  0  0  0  0  0  0  0  0  0
   -4.0803    0.4131   -2.3110 H   0  0  0  0  0  0  0  0  0  0  0  0
   -4.3813    2.1819   -2.3514 H   0  0  0  0  0  0  0  0  0  0  0  0
   -1.9767    3.3857   -0.5261 C   0  0  0  0  0  0  0  0  0  0  0  0
   -2.3535    4.1893   -1.1942 H   0  0  0  0  0  0  0  0  0  0  0  0
   -0.9227    3.6166   -0.2673 H   0  0  0  0  0  0  0  0  0  0  0  0
   -2.5678    3.4172    0.4122 H   0  0  0  0  0  0  0  0  0  0  0  0
   -1.1827    1.7775   -3.0287 C   0  0  0  0  0  0  0  0  0  0  0  0
   -1.2224    0.8058   -3.5619 H   0  0  0  0  0  0  0  0  0  0  0  0
   -0.1136    2.0229   -2.8611 H   0  0  0  0  0  0  0  0  0  0  0  0
   -1.6207    2.5545   -3.6911 H   0  0  0  0  0  0  0  0  0  0  0  0
   -1.8270   -2.1578   -2.6792 C   0  0  0  0  0  0  0  0  0  0  0  0
   -2.1298   -3.1616   -3.0464 H   0  0  0  0  0  0  0  0  0  0  0  0
   -0.7864   -1.9656   -3.0127 H   0  0  0  0  0  0  0  0  0  0  0  0
   -2.4803   -1.4054   -3.1667 H   0  0  0  0  0  0  0  0  0  0  0  0
   -3.7774   -2.3782   -0.3048 C   0  0  0  0  0  0  0  0  0  0  0  0
   -4.4375   -1.5727   -0.6859 H   0  0  0  0  0  0  0  0  0  0  0  0
   -3.8995   -2.4195    0.7970 H   0  0  0  0  0  0  0  0  0  0  0  0
   -4.1322   -3.3440   -0.7239 H   0  0  0  0  0  0  0  0  0  0  0  0
   -0.9091   -3.4719   -0.0541 C   0  0  0  0  0  0  0  0  0  0  0  0
   -1.2865   -4.4659   -0.3762 H   0  0  0  0  0  0  0  0  0  0  0  0
   -0.9131   -3.4414    1.0546 H   0  0  0  0  0  0  0  0  0  0  0  0
    0.1446   -3.3755   -0.3901 H   0  0  0  0  0  0  0  0  0  0  0  0
   -3.8753    0.7282    2.1837 C   0  0  0  0  0  0  0  0  0  0  0  0
   -4.2500    0.8247    3.2252 H   0  0  0  0  0  0  0  0  0  0  0  0
   -4.4650   -0.0615    1.6758 H   0  0  0  0  0  0  0  0  0  0  0  0
   -4.0741    1.6860    1.6606 H   0  0  0  0  0  0  0  0  0  0  0  0
   -1.7536   -1.2607    3.2055 C   0  0  0  0  0  0  0  0  0  0  0  0
   -2.0822   -1.1060    4.2553 H   0  0  0  0  0  0  0  0  0  0  0  0
   -0.6824   -1.5496    3.2167 H   0  0  0  0  0  0  0  0  0  0  0  0
   -2.3288   -2.1138    2.7904 H   0  0  0  0  0  0  0  0  0  0  0  0
   -1.0957    1.7425    3.0351 C   0  0  0  0  0  0  0  0  0  0  0  0
   -1.1989    2.6867    2.4623 H   0  0  0  0  0  0  0  0  0  0  0  0
   -0.0129    1.5118    3.1105 H   0  0  0  0  0  0  0  0  0  0  0  0
   -1.4893    1.9141    4.0598 H   0  0  0  0  0  0  0  0  0  0  0  0
  1  4  1  0  0  0  0
  1 37  1  0  0  0  0
  1 25  1  0  0  0  0
  1 13  1  0  0  0  0
  2  9  1  0  0  0  0
  2  1  1  0  0  0  0
  3 21  1  0  0  0  0
  3 25  1  0  0  0  0
  3  1  1  0  0  0  0
  4 29  1  0  0  0  0
  4 37  1  0  0  0  0
  4 33  1  0  0  0  0
  5  2  1  0  0  0  0
  5  6  1  0  0  0  0
  7  5  1  0  0  0  0
  8  5  1  0  0  0  0
  9 11  1  0  0  0  0
  9 12  1  0  0  0  0
 10  9  1  0  0  0  0
 13 15  1  0  0  0  0
 13  2  1  0  0  0  0
 14 13  1  0  0  0  0
 16 13  1  0  0  0  0
 17  3  1  0  0  0  0
 18 17  1  0  0  0  0
 19 17  1  0  0  0  0
 20 17  1  0  0  0  0
 21 23  1  0  0  0  0
 22 21  1  0  0  0  0
 24 21  1  0  0  0  0
 25 27  1  0  0  0  0
 26 25  1  0  0  0  0
 28 25  1  0  0  0  0
 29 30  1  0  0  0  0
 31 29  1  0  0  0  0
 32 29  1  0  0  0  0
 33 35  1  0  0  0  0
 33 34  1  0  0  0  0
 36 33  1  0  0  0  0
 37 39  1  0  0  0  0
 37 40  1  0  0  0  0
 38 37  1  0  0  0  0
M  ZBO  3   2   0   3   0   4   0
M  END
