1
q = nan, confidence = 0.0

 40 41  0  0  0  0  0  0  0  0999 V2000
   -1.5280    0.0363    0.0113 Si  0  0  0  0  0  0  0  0  0  0  0  0
   -2.4993    1.6488   -1.4467 Si  0  0  0  0  0  0  0  0  0  0  0  0
   -2.5166    0.4015    2.1438 Si  0  0  0  0  0  0  0  0  0  0  0  0
   -2.5484   -1.9999   -0.7327 Si  0  0  0  0  0  0  0  0  0  0  0  0
   -1.7092    1.6826   -3.1773 C   0  0  0  0  0  0  0  0  0  0  0  0
   -1.8224    0.6970   -3.6710 H   0  0  0  0  0  0  0  0  0  0  0  0
   -0.6258    1.9081   -3.1651 H   0  0  0  0  0  0  0  0  0  0  0  0
   -2.2201    2.4449   -3.8033 H   0  0  0  0  0  0  0  0  0  0  0  0
   -2.3882    3.4047   -0.6976 C   0  0  0  0  0  0  0  0  0  0  0  0
   -2.9737    4.1119   -1.3229 H   0  0  0  0  0  0  0  0  0  0  0  0
   -1.3516    3.7926   -0.6428 H   0  0  0  0  0  0  0  0  0  0  0  0
   -2.8119    3.4290    0.3273 H   0  0  0  0  0  0  0  0  0  0  0  0
   -4.3543    1.3355   -1.7420 C   0  0  0  0  0  0  0  0  0  0  0  0
   -4.9271    1.2880   -0.7959 H   0  0  0  0  0  0  0  0  0  0  0  0
   -4.5206    0.3890   -2.2937 H   0  0  0  0  0  0  0  0  0  0  0  0
   -4.7681    2.1631   -2.3569 H   0  0  0  0  0  0  0  0  0  0  0  0
   -1.7089    1.8111    3.1393 C   0  0  0  0  0  0  0  0  0  0  0  0
   -1.7625    2.7838    2.6091 H   0  0  0  0  0  0  0  0  0  0  0  0
   -0.6492    1.5848    3.3670 H   0  0  0  0  0  0  0  0  0  0  0  0
   -2.2501    1.9250    4.1028 H   0  0  0  0  0  0  0  0  0  0  0  0
   -4.3608    0.8677    2.0168 C   0  0  0  0  0  0  0  0  0  0  0  0
   -4.7919    0.9535    3.0372 H   0  0  0  0  0  0  0  0  0  0  0  0
   -4.9475    0.1143    1.4570 H   0  0  0  0  0  0  0  0  0  0  0  0
   -4.4922    1.8475    1.5135 H   0  0  0  0  0  0  0  0  0  0  0  0
   -2.3571   -1.1854    3.1779 C   0  0  0  0  0  0  0  0  0  0  0  0
   -1.2930   -1.4851    3.2644 H   0  0  0  0  0  0  0  0  0  0  0  0
   -2.9157   -2.0265    2.7200 H   0  0  0  0  0  0  0  0  0  0  0  0
   -2.7571   -1.0246    4.2014 H   0  0  0  0  0  0  0  0  0  0  0  0
   -2.3472   -2.1373   -2.6189 C   0  0  0  0  0  0  0  0  0  0  0  0
   -2.7130   -3.1239   -2.9741 H   0  0  0  0  0  0  0  0  0  0  0  0
   -1.2816   -2.0341   -2.9076 H   0  0  0  0  0  0  0  0  0  0  0  0
   -2.9211   -1.3502   -3.1485 H   0  0  0  0  0  0  0  0  0  0  0  0
   -1.8245   -3.5682    0.0560 C   0  0  0  0  0  0  0  0  0  0  0  0
   -2.4827   -4.4277   -0.1933 H   0  0  0  0  0  0  0  0  0  0  0  0
   -1.7681   -3.4866    1.1599 H   0  0  0  0  0  0  0  0  0  0  0  0
   -0.8065   -3.7876   -0.3169 H   0  0  0  0  0  0  0  0  0  0  0  0
   -4.4075   -2.0506   -0.3107 C   0  0  0  0  0  0  0  0  0  0  0  0
   -4.8517   -2.9589   -0.7717 H   0  0  0  0  0  0  0  0  0  0  0  0
   -4.9622   -1.1683   -0.6810 H   0  0  0  0  0  0  0  0  0  0  0  0
   -4.5616   -2.1220    0.7850 H   0  0  0  0  0  0  0  0  0  0  0  0
  1  3  1  0  0  0  0
  1 25  1  0  0  0  0
  1 29  1  0  0  0  0
  2  9  1  0  0  0  0
  2  1  1  0  0  0  0
  3 17  1  0  0  0  0
  3 25  1  0  0  0  0
  4 37  1  0  0  0  0
  4  1  1  0  0  0  0
  4 33  1  0  0  0  0
  5  7  1  0  0  0  0
  5  2  1  0  0  0  0
  6  5  1  0  0  0  0
  8  5  1  0  0  0  0
  9 11  1  0  0  0  0
  9 12  1  0  0  0  0
 10  9  1  0  0  0  0
 13  2  1  0  0  0  0
 13 14  1  0  0  0  0
 15 13  1  0  0  0  0
 16 13  1  0  0  0  0
 17 19  1  0  0  0  0
 17 20  1  0  0  0  0
 18 17  1  0  0  0  0
 21  3  1  0  0  0  0
 21 22  1  0  0  0  0
 23 21  1  0  0  0  0
 24 21  1  0  0  0  0
 25 26  1  0  0  0  0
 25 28  1  0  0  0  0
 27 25  1  0  0  0  0
 29  4  1  0  0  0  0
 30 29  1  0  0  0  0
 31 29  1  0  0  0  0
 32 29  1  0  0  0  0
 33 35  1  0  0  0  0
 34 33  1  0  0  0  0
 36 33  1  0  0  0  0
 37 40  1  0  0  0  0
 38 37  1  0  0  0  0
 39 37  1  0  0  0  0
M  ZBO  2   2   0   3   0
M  END
