1
q = 0.0, confidence = 0.988

 27 28  0  0  0  0  0  0  0  0999 V2000
   -0.2633    0.3402   -0.6940 Si  0  0  2  0  0  3  0  0  0  0  0  0
   -1.0499    1.9965    0.1660 N   0  3  0  0  0  0  0  0  0  0  0  0
   -0.2248    0.8284   -2.5205 C   0  0  0  0  0  0  0  0  0  0  0  0
   -1.8992   -0.5136   -0.3176 C   0  0  0  0  0  0  0  0  0  0  0  0
   -2.9244    0.4326   -0.0703 C   0  0  0  0  0  0  0  0  0  0  0  0
   -4.2309    0.0209    0.2293 C   0  0  0  0  0  0  0  0  0  0  0  0
   -4.5256   -1.3513    0.2737 C   0  0  0  0  0  0  0  0  0  0  0  0
   -3.5197   -2.3004    0.0294 C   0  0  0  0  0  0  0  0  0  0  0  0
   -2.2096   -1.8858   -0.2596 C   0  0  0  0  0  0  0  0  0  0  0  0
   -2.5159    1.8812   -0.1789 C   0  0  0  0  0  0  0  0  0  0  0  0
   -0.8917    1.9230    1.6481 C   0  0  0  0  0  0  0  0  0  0  0  0
   -0.4935    3.2801   -0.3333 C   0  0  0  0  0  0  0  0  0  0  0  0
    0.6090    1.5063   -2.7892 H   0  0  0  0  0  0  0  0  0  0  0  0
   -1.1799    1.2669   -2.8730 H   0  0  0  0  0  0  0  0  0  0  0  0
   -0.0772   -0.1153   -3.0870 H   0  0  0  0  0  0  0  0  0  0  0  0
   -5.0189    0.7633    0.4308 H   0  0  0  0  0  0  0  0  0  0  0  0
   -5.5476   -1.6821    0.5107 H   0  0  0  0  0  0  0  0  0  0  0  0
   -3.7564   -3.3738    0.0721 H   0  0  0  0  0  0  0  0  0  0  0  0
   -1.4366   -2.6465   -0.4432 H   0  0  0  0  0  0  0  0  0  0  0  0
   -2.6370    2.2542   -1.2179 H   0  0  0  0  0  0  0  0  0  0  0  0
   -3.1006    2.5521    0.4846 H   0  0  0  0  0  0  0  0  0  0  0  0
   -1.3923    2.7932    2.1175 H   0  0  0  0  0  0  0  0  0  0  0  0
   -1.3479    0.9889    2.0217 H   0  0  0  0  0  0  0  0  0  0  0  0
    0.1826    1.9288    1.9013 H   0  0  0  0  0  0  0  0  0  0  0  0
   -0.5573    3.3170   -1.4354 H   0  0  0  0  0  0  0  0  0  0  0  0
    0.5615    3.3726   -0.0187 H   0  0  0  0  0  0  0  0  0  0  0  0
   -1.0641    4.1297    0.0930 H   0  0  0  0  0  0  0  0  0  0  0  0
  1  3  1  6  0  0  0
  1  4  1  0  0  0  0
  1  2  1  0  0  0  0
  2 11  1  0  0  0  0
  4  9  2  0  0  0  0
  4  5  1  0  0  0  0
  5  6  2  0  0  0  0
  6  7  1  0  0  0  0
  6 16  1  0  0  0  0
  7 17  1  0  0  0  0
  8 18  1  0  0  0  0
  8  7  2  0  0  0  0
  9  8  1  0  0  0  0
 10  5  1  0  0  0  0
 10  2  1  0  0  0  0
 10 21  1  0  0  0  0
 11 24  1  0  0  0  0
 11 23  1  0  0  0  0
 11 22  1  0  0  0  0
 12 26  1  0  0  0  0
 12 27  1  0  0  0  0
 12  2  1  0  0  0  0
 13  3  1  0  0  0  0
 14  3  1  0  0  0  0
 15  3  1  0  0  0  0
 19  9  1  0  0  0  0
 20 10  1  0  0  0  0
 25 12  1  0  0  0  0
M  CHG  1   2   1
M  END
