2,4,20,22
q = -2.0, confidence = 0.946

 36 37  0  0  0  0  0  0  0  0999 V2000
   -0.7276    0.8626   -0.8349 S   0  0  0  0  0  0  0  0  0  0  0  0
   -0.0909   -0.3454   -1.5347 O   0  0  0  0  0  1  0  0  0  0  0  0
   -0.7859    2.1619   -1.5432 O   0  0  0  0  0  1  0  0  0  0  0  0
    0.1788    0.7993    0.5088 N   0  0  0  0  0  2  0  0  0  0  0  0
   -2.6173   -0.9322    0.0525 C   0  0  0  0  0  0  0  0  0  0  0  0
   -1.7859   -1.6509    0.1192 H   0  0  0  0  0  0  0  0  0  0  0  0
    1.5392    2.8484    0.9204 C   0  0  0  0  0  0  0  0  0  0  0  0
    1.5805    3.7319    1.5916 H   0  0  0  0  0  0  0  0  0  0  0  0
    1.3220    3.2378   -0.0965 H   0  0  0  0  0  0  0  0  0  0  0  0
    3.0771    0.9903   -0.0002 C   0  0  0  0  0  0  0  0  0  0  0  0
    2.5782    0.8751   -1.3348 C   0  0  0  0  0  0  0  0  0  0  0  0
    1.9596    1.6153   -1.8569 H   0  0  0  0  0  0  0  0  0  0  0  0
    0.3666    1.9618    1.3648 C   0  0  0  0  0  0  0  0  0  0  0  0
    0.5419    1.5704    2.3897 H   0  0  0  0  0  0  0  0  0  0  0  0
   -0.5669    2.5655    1.3957 H   0  0  0  0  0  0  0  0  0  0  0  0
   -2.3927    0.3736   -0.4199 C   0  0  0  0  0  0  0  0  0  0  0  0
   -3.4330    1.3037   -0.5390 C   0  0  0  0  0  0  0  0  0  0  0  0
   -3.2200    2.3094   -0.9286 H   0  0  0  0  0  0  0  0  0  0  0  0
   -4.9920   -0.3807    0.3165 C   0  0  0  0  0  0  0  0  0  0  0  0
    3.7408   -0.2434    0.2994 C   0  0  0  0  0  3  0  0  0  0  0  0
    4.1995   -0.4954    1.2615 H   0  0  0  0  0  0  0  0  0  0  0  0
    2.9072   -0.4167   -1.8351 C   0  0  0  0  0  3  0  0  0  0  0  0
    2.5834   -0.8322   -2.7966 H   0  0  0  0  0  0  0  0  0  0  0  0
   -3.9164   -1.2948    0.4150 C   0  0  0  0  0  0  0  0  0  0  0  0
   -4.1061   -2.3157    0.7817 H   0  0  0  0  0  0  0  0  0  0  0  0
    3.6352   -1.1085   -0.8249 C   0  0  0  0  0  3  0  0  0  0  0  0
    3.9914   -2.1431   -0.8800 H   0  0  0  0  0  0  0  0  0  0  0  0
   -4.7285    0.9165   -0.1662 C   0  0  0  0  0  0  0  0  0  0  0  0
   -5.5551    1.6383   -0.2564 H   0  0  0  0  0  0  0  0  0  0  0  0
    2.9090    2.1481    0.9497 C   0  0  0  0  0  0  0  0  0  0  0  0
    3.6957    2.9009    0.7218 H   0  0  0  0  0  0  0  0  0  0  0  0
    3.1178    1.7840    1.9774 H   0  0  0  0  0  0  0  0  0  0  0  0
   -6.3827   -0.7995    0.7157 C   0  0  0  0  0  0  0  0  0  0  0  0
   -7.1111    0.0248    0.5955 H   0  0  0  0  0  0  0  0  0  0  0  0
   -6.4110   -1.1315    1.7743 H   0  0  0  0  0  0  0  0  0  0  0  0
   -6.7317   -1.6569    0.1033 H   0  0  0  0  0  0  0  0  0  0  0  0
  1 16  1  0  0  0  0
  1  4  1  0  0  0  0
  2  1  1  0  0  0  0
  3  1  1  0  0  0  0
  4 13  1  0  0  0  0
  5  6  1  0  0  0  0
  5 24  1  0  0  0  0
  7 30  1  0  0  0  0
  7 13  1  0  0  0  0
  7  8  1  0  0  0  0
  9  7  1  0  0  0  0
 10 20  1  0  0  0  0
 10 30  1  0  0  0  0
 11 10  2  0  0  0  0
 12 11  1  0  0  0  0
 13 15  1  0  0  0  0
 13 14  1  0  0  0  0
 16  5  2  0  0  0  0
 17 16  1  0  0  0  0
 17 28  2  0  0  0  0
 18 17  1  0  0  0  0
 19 24  2  0  0  0  0
 19 33  1  0  0  0  0
 20 21  1  0  0  0  0
 22 11  1  0  0  0  0
 22 26  1  0  0  0  0
 23 22  1  0  0  0  0
 24 25  1  0  0  0  0
 26 20  1  0  0  0  0
 27 26  1  0  0  0  0
 28 19  1  0  0  0  0
 29 28  1  0  0  0  0
 30 32  1  0  0  0  0
 31 30  1  0  0  0  0
 33 35  1  0  0  0  0
 34 33  1  0  0  0  0
 36 33  1  0  0  0  0
M  END
