3,4,25,31
q = -2.0, confidence = 0.982

 42 43  0  0  1  0  0  0  0  0999 V2000
    0.5629   -0.1602    1.3575 S   0  0  0  0  0  0  0  0  0  0  0  0
    0.7842    0.5750    2.6199 O   0  0  0  0  0  1  0  0  0  0  0  0
   -0.2147   -1.4619    1.3356 O   0  0  0  0  0  1  0  0  0  0  0  0
   -0.3701    0.6442    0.2520 N   0  0  0  0  0  2  0  0  0  0  0  0
    2.1585   -0.5271    0.6371 C   0  0  0  0  0  0  0  0  0  0  0  0
    3.3101    0.0538    1.1828 C   0  0  0  0  0  0  0  0  0  0  0  0
    3.2240    0.7028    2.0663 H   0  0  0  0  0  0  0  0  0  0  0  0
    4.5501   -0.2188    0.5882 C   0  0  0  0  0  0  0  0  0  0  0  0
    5.4624    0.2318    1.0092 H   0  0  0  0  0  0  0  0  0  0  0  0
    4.6505   -1.0642   -0.5352 C   0  0  0  0  0  0  0  0  0  0  0  0
    3.4674   -1.6454   -1.0478 C   0  0  0  0  0  0  0  0  0  0  0  0
    3.5290   -2.3191   -1.9169 H   0  0  0  0  0  0  0  0  0  0  0  0
    2.2205   -1.3920   -0.4697 C   0  0  0  0  0  0  0  0  0  0  0  0
    1.3010   -1.8556   -0.8604 H   0  0  0  0  0  0  0  0  0  0  0  0
    5.9830   -1.3655   -1.1696 C   0  0  0  0  0  0  0  0  0  0  0  0
    6.7951   -0.7548   -0.7313 H   0  0  0  0  0  0  0  0  0  0  0  0
    5.9597   -1.1777   -2.2626 H   0  0  0  0  0  0  0  0  0  0  0  0
    6.2526   -2.4343   -1.0352 H   0  0  0  0  0  0  0  0  0  0  0  0
   -0.3458    2.1151    0.1498 C   0  0  2  0  0  0  0  0  0  0  0  0
   -0.7680    2.5293    1.0948 H   0  0  0  0  0  0  0  0  0  0  0  0
   -1.3021    2.4436   -1.0163 C   0  0  0  0  0  0  0  0  0  0  0  0
   -1.7545    3.4444   -0.8714 H   0  0  0  0  0  0  0  0  0  0  0  0
   -0.7382    2.4686   -1.9684 H   0  0  0  0  0  0  0  0  0  0  0  0
   -2.3607    1.3864   -1.1158 C   0  0  1  0  0  3  0  0  0  0  0  0
   -2.3967    0.3413   -2.0852 C   0  0  0  0  0  3  0  0  0  0  0  0
   -1.6761    0.2040   -2.9001 H   0  0  0  0  0  0  0  0  0  0  0  0
   -3.4859   -0.5250   -1.7715 C   0  0  0  0  0  0  0  0  0  0  0  0
   -3.7505   -1.4427   -2.3075 H   0  0  0  0  0  0  0  0  0  0  0  0
   -4.1133   -0.0306   -0.6010 C   0  0  0  0  0  0  0  0  0  0  0  0
   -4.9477   -0.4997   -0.0698 H   0  0  0  0  0  0  0  0  0  0  0  0
   -3.4082    1.1350   -0.1784 C   0  0  0  0  0  3  0  0  0  0  0  0
   -3.6123    1.7116    0.7321 H   0  0  0  0  0  0  0  0  0  0  0  0
    1.0712    2.7185   -0.0115 C   0  0  0  0  0  0  0  0  0  0  0  0
    1.6499    2.3546    0.8645 H   0  0  0  0  0  0  0  0  0  0  0  0
    1.0198    4.2475    0.0931 C   0  0  0  0  0  0  0  0  0  0  0  0
    2.0421    4.6755    0.0795 H   0  0  0  0  0  0  0  0  0  0  0  0
    0.5283    4.5778    1.0310 H   0  0  0  0  0  0  0  0  0  0  0  0
    0.4659    4.6950   -0.7587 H   0  0  0  0  0  0  0  0  0  0  0  0
    1.7909    2.2610   -1.2859 C   0  0  0  0  0  0  0  0  0  0  0  0
    1.6979    1.1690   -1.4416 H   0  0  0  0  0  0  0  0  0  0  0  0
    2.8714    2.5001   -1.2274 H   0  0  0  0  0  0  0  0  0  0  0  0
    1.3921    2.7701   -2.1879 H   0  0  0  0  0  0  0  0  0  0  0  0
  1  2  1  0  0  0  0
  3  1  1  0  0  0  0
  4  1  1  0  0  0  0
  5  6  1  0  0  0  0
  5  1  1  0  0  0  0
  6  7  1  0  0  0  0
  8  9  1  0  0  0  0
  8  6  2  0  0  0  0
 10  8  1  0  0  0  0
 11 10  2  0  0  0  0
 11 13  1  0  0  0  0
 12 11  1  0  0  0  0
 13  5  2  0  0  0  0
 14 13  1  0  0  0  0
 15 18  1  0  0  0  0
 15 16  1  0  0  0  0
 15 10  1  0  0  0  0
 17 15  1  0  0  0  0
 19  4  1  0  0  0  0
 19 20  1  1  0  0  0
 21 22  1  0  0  0  0
 21 19  1  0  0  0  0
 23 21  1  0  0  0  0
 24 21  1  1  0  0  0
 24 31  1  0  0  0  0
 25 27  1  0  0  0  0
 25 24  1  0  0  0  0
 26 25  1  0  0  0  0
 27 29  2  0  0  0  0
 28 27  1  0  0  0  0
 29 31  1  0  0  0  0
 29 30  1  0  0  0  0
 31 32  1  0  0  0  0
 33 35  1  0  0  0  0
 33 19  1  0  0  0  0
 33 34  1  0  0  0  0
 35 37  1  0  0  0  0
 36 35  1  0  0  0  0
 38 35  1  0  0  0  0
 39 41  1  0  0  0  0
 39 33  1  0  0  0  0
 40 39  1  0  0  0  0
 42 39  1  0  0  0  0
M  END
