1,2,3,4
q = -2.0, confidence = 0.932

 40 42  0  0  1  0  0  0  0  0999 V2000
    0.9638    0.2200   -1.4227 S   0  0  0  0  0  0  0  0  0  0  0  0
   -0.9641    0.2199    1.4227 S   0  0  0  0  0  0  0  0  0  0  0  0
    1.5928   -1.3985    0.9053 O   0  5  0  0  0  0  0  0  0  0  0  0
   -1.5928   -1.3987   -0.9053 O   0  5  0  0  0  0  0  0  0  0  0  0
    2.6046   -0.6008    0.5922 C   0  0  0  0  0  0  0  0  0  0  0  0
    2.5103    0.2645   -0.5378 C   0  0  0  0  0  0  0  0  0  0  0  0
    3.6034    1.0551   -0.9335 C   0  0  0  0  0  0  0  0  0  0  0  0
    3.5259    1.6700   -1.8422 H   0  0  0  0  0  0  0  0  0  0  0  0
    4.7858    1.0392   -0.1797 C   0  0  0  0  0  0  0  0  0  0  0  0
    5.6415    1.6579   -0.4863 H   0  0  0  0  0  0  0  0  0  0  0  0
    4.8734    0.2150    0.9581 C   0  0  0  0  0  0  0  0  0  0  0  0
    5.8024    0.1976    1.5485 H   0  0  0  0  0  0  0  0  0  0  0  0
    3.8042   -0.6011    1.3436 C   0  0  0  0  0  0  0  0  0  0  0  0
    3.8693   -1.2663    2.2163 H   0  0  0  0  0  0  0  0  0  0  0  0
    0.0724    1.7165   -0.7613 C   0  0  1  0  0  0  0  0  0  0  0  0
   -0.9336    1.6063   -1.2237 H   0  0  0  0  0  0  0  0  0  0  0  0
   -0.0724    1.7164    0.7615 C   0  0  1  0  0  0  0  0  0  0  0  0
    0.9336    1.6060    1.2240 H   0  0  0  0  0  0  0  0  0  0  0  0
   -0.7395    3.0021    1.2747 C   0  0  0  0  0  0  0  0  0  0  0  0
   -1.7932    3.0184    0.9225 H   0  0  0  0  0  0  0  0  0  0  0  0
   -0.7696    2.9763    2.3829 H   0  0  0  0  0  0  0  0  0  0  0  0
   -0.0285    4.2611    0.7648 C   0  0  0  0  0  0  0  0  0  0  0  0
   -0.5533    5.1629    1.1419 H   0  0  0  0  0  0  0  0  0  0  0  0
    1.0048    4.3011    1.1756 H   0  0  0  0  0  0  0  0  0  0  0  0
    0.0288    4.2612   -0.7642 C   0  0  0  0  0  0  0  0  0  0  0  0
    0.5536    5.1630   -1.1411 H   0  0  0  0  0  0  0  0  0  0  0  0
   -1.0045    4.3013   -1.1750 H   0  0  0  0  0  0  0  0  0  0  0  0
    0.7396    3.0022   -1.2743 C   0  0  0  0  0  0  0  0  0  0  0  0
    1.7933    3.0184   -0.9221 H   0  0  0  0  0  0  0  0  0  0  0  0
    0.7697    2.9766   -2.3825 H   0  0  0  0  0  0  0  0  0  0  0  0
   -2.5104    0.2645    0.5375 C   0  0  0  0  0  0  0  0  0  0  0  0
   -2.6046   -0.6008   -0.5924 C   0  0  0  0  0  0  0  0  0  0  0  0
   -3.8041   -0.6011   -1.3439 C   0  0  0  0  0  0  0  0  0  0  0  0
   -3.8692   -1.2663   -2.2167 H   0  0  0  0  0  0  0  0  0  0  0  0
   -4.8733    0.2151   -0.9587 C   0  0  0  0  0  0  0  0  0  0  0  0
   -5.8022    0.1977   -1.5492 H   0  0  0  0  0  0  0  0  0  0  0  0
   -4.7857    1.0394    0.1791 C   0  0  0  0  0  0  0  0  0  0  0  0
   -5.6415    1.6582    0.4855 H   0  0  0  0  0  0  0  0  0  0  0  0
   -3.6035    1.0553    0.9330 C   0  0  0  0  0  0  0  0  0  0  0  0
   -3.5260    1.6702    1.8417 H   0  0  0  0  0  0  0  0  0  0  0  0
  1 15  1  0  0  0  0
  1  6  1  0  0  0  0
  4 32  1  0  0  0  0
  5  3  1  0  0  0  0
  5 13  1  0  0  0  0
  6  5  2  0  0  0  0
  7  6  1  0  0  0  0
  7  9  2  0  0  0  0
  8  7  1  0  0  0  0
  9 11  1  0  0  0  0
 10  9  1  0  0  0  0
 11 13  2  0  0  0  0
 11 12  1  0  0  0  0
 13 14  1  0  0  0  0
 15 16  1  6  0  0  0
 15 17  1  0  0  0  0
 17 18  1  1  0  0  0
 17 19  1  0  0  0  0
 17  2  1  0  0  0  0
 19 21  1  0  0  0  0
 20 19  1  0  0  0  0
 22 23  1  0  0  0  0
 22 24  1  0  0  0  0
 22 19  1  0  0  0  0
 25 22  1  0  0  0  0
 26 25  1  0  0  0  0
 27 25  1  0  0  0  0
 28 29  1  0  0  0  0
 28 25  1  0  0  0  0
 28 15  1  0  0  0  0
 30 28  1  0  0  0  0
 31 39  1  0  0  0  0
 31  2  1  0  0  0  0
 32 31  2  0  0  0  0
 33 35  2  0  0  0  0
 33 32  1  0  0  0  0
 34 33  1  0  0  0  0
 35 37  1  0  0  0  0
 36 35  1  0  0  0  0
 37 38  1  0  0  0  0
 37 39  2  0  0  0  0
 39 40  1  0  0  0  0
M  CHG  2   3  -1   4  -1
M  END
