1,2,3,5
q = -2.0, confidence = 0.83

 35 35  0  0  1  0  0  0  0  0999 V2000
    1.8054    0.7432   -1.2443 S   0  0  0  0  0  0  0  0  0  0  0  0
   -1.1190   -1.5283    1.1668 S   0  0  0  0  0  0  0  0  0  0  0  0
    1.7857   -1.4439    0.6106 O   0  5  0  0  0  0  0  0  0  0  0  0
    3.9731   -1.3557    1.1215 O   0  0  0  0  0  0  0  0  0  0  0  0
   -1.0670   -0.0666   -1.3522 O   0  5  0  0  0  0  0  0  0  0  0  0
   -3.2713    0.1105   -1.7079 O   0  0  0  0  0  0  0  0  0  0  0  0
   -0.1752    1.4458    0.8491 N   0  0  0  0  0  0  0  0  0  0  0  0
    2.9557   -0.8413    0.6827 C   0  0  0  0  0  0  0  0  0  0  0  0
    2.9398    0.6357    0.2185 C   0  0  1  0  0  0  0  0  0  0  0  0
    2.3978    1.1917    1.0141 H   0  0  0  0  0  0  0  0  0  0  0  0
    1.0639    2.4207   -0.9891 C   0  0  0  0  0  0  0  0  0  0  0  0
    1.8846    3.0472   -0.5808 H   0  0  0  0  0  0  0  0  0  0  0  0
    0.8139    2.8062   -1.9956 H   0  0  0  0  0  0  0  0  0  0  0  0
   -0.1615    2.3932   -0.1027 C   0  0  0  0  0  0  0  0  0  0  0  0
   -1.2626    3.2350   -0.3394 C   0  0  0  0  0  0  0  0  0  0  0  0
   -1.2232    3.9941   -1.1345 H   0  0  0  0  0  0  0  0  0  0  0  0
   -2.4217    3.0549    0.4258 C   0  0  0  0  0  0  0  0  0  0  0  0
   -3.3063    3.6853    0.2554 H   0  0  0  0  0  0  0  0  0  0  0  0
   -2.4641    2.0041    1.3571 C   0  0  0  0  0  0  0  0  0  0  0  0
   -3.3826    1.7839    1.9210 H   0  0  0  0  0  0  0  0  0  0  0  0
   -1.3189    1.2126    1.5278 C   0  0  0  0  0  0  0  0  0  0  0  0
   -1.3172   -0.0702    2.3102 C   0  0  0  0  0  0  0  0  0  0  0  0
   -2.2367   -0.2247    2.9071 H   0  0  0  0  0  0  0  0  0  0  0  0
   -0.4287   -0.1499    2.9677 H   0  0  0  0  0  0  0  0  0  0  0  0
   -2.3218   -0.3406   -1.0795 C   0  0  0  0  0  0  0  0  0  0  0  0
   -2.5845   -1.3626    0.0556 C   0  0  1  0  0  0  0  0  0  0  0  0
   -3.4390   -1.0031    0.6639 H   0  0  0  0  0  0  0  0  0  0  0  0
    4.3185    1.2065   -0.0536 C   0  0  0  0  0  0  0  0  0  0  0  0
    4.8040    0.6879   -0.9031 H   0  0  0  0  0  0  0  0  0  0  0  0
    4.9491    1.0392    0.8419 H   0  0  0  0  0  0  0  0  0  0  0  0
    4.2850    2.2928   -0.2711 H   0  0  0  0  0  0  0  0  0  0  0  0
   -2.8789   -2.7470   -0.5325 C   0  0  0  0  0  0  0  0  0  0  0  0
   -1.9686   -3.1530   -1.0174 H   0  0  0  0  0  0  0  0  0  0  0  0
   -3.6811   -2.6406   -1.2890 H   0  0  0  0  0  0  0  0  0  0  0  0
   -3.2119   -3.4565    0.2500 H   0  0  0  0  0  0  0  0  0  0  0  0
  1 11  1  0  0  0  0
  1  9  1  0  0  0  0
  2 22  1  0  0  0  0
  3  8  1  0  0  0  0
  5 25  1  0  0  0  0
  6 25  2  0  0  0  0
  7 21  1  0  0  0  0
  8  4  2  0  0  0  0
  9  8  1  0  0  0  0
  9 10  1  1  0  0  0
 11 12  1  0  0  0  0
 11 14  1  0  0  0  0
 13 11  1  0  0  0  0
 14  7  2  0  0  0  0
 15 14  1  0  0  0  0
 15 17  2  0  0  0  0
 16 15  1  0  0  0  0
 17 19  1  0  0  0  0
 18 17  1  0  0  0  0
 19 21  2  0  0  0  0
 19 20  1  0  0  0  0
 21 22  1  0  0  0  0
 22 23  1  0  0  0  0
 22 24  1  0  0  0  0
 25 26  1  0  0  0  0
 26 27  1  1  0  0  0
 26  2  1  0  0  0  0
 28  9  1  0  0  0  0
 28 30  1  0  0  0  0
 29 28  1  0  0  0  0
 31 28  1  0  0  0  0
 32 26  1  0  0  0  0
 32 35  1  0  0  0  0
 33 32  1  0  0  0  0
 34 32  1  0  0  0  0
M  CHG  2   3  -1   5  -1
M  END
