1,2,28,29
q = -2.0, confidence = 0.902

 54 55  0  0  0  0  0  0  0  0999 V2000
   -0.3709    1.6249    1.0824 S   0  0  0  0  0  0  0  0  0  0  0  0
   -1.8214   -0.4183   -0.2308 O   0  5  0  0  0  0  0  0  0  0  0  0
   -2.6531    0.5443    0.1345 C   0  0  0  0  0  0  0  0  0  0  0  0
   -2.0957    1.6847    0.7847 C   0  0  0  0  0  0  0  0  0  0  0  0
   -2.8919    2.7798    1.1740 C   0  0  0  0  0  0  0  0  0  0  0  0
   -2.4242    3.6522    1.6540 H   0  0  0  0  0  0  0  0  0  0  0  0
   -4.2725    2.7302    0.9554 C   0  0  0  0  0  0  0  0  0  0  0  0
   -4.8152    1.5817    0.3227 C   0  0  0  0  0  0  0  0  0  0  0  0
   -5.9014    1.5669    0.1541 H   0  0  0  0  0  0  0  0  0  0  0  0
   -4.0592    0.4795   -0.1036 C   0  0  0  0  0  0  0  0  0  0  0  0
   -5.1784    3.8599    1.3757 C   0  0  0  0  0  0  0  0  0  0  0  0
   -4.6061    4.7066    1.8007 H   0  0  0  0  0  0  0  0  0  0  0  0
   -5.7689    4.2439    0.5180 H   0  0  0  0  0  0  0  0  0  0  0  0
   -5.9081    3.5261    2.1432 H   0  0  0  0  0  0  0  0  0  0  0  0
   -4.6788   -0.7516   -0.7838 C   0  0  0  0  0  0  0  0  0  0  0  0
   -4.0529   -0.9410   -2.1866 C   0  0  0  0  0  0  0  0  0  0  0  0
   -2.9624   -1.1169   -2.1303 H   0  0  0  0  0  0  0  0  0  0  0  0
   -4.5149   -1.8167   -2.6870 H   0  0  0  0  0  0  0  0  0  0  0  0
   -4.2338   -0.0502   -2.8223 H   0  0  0  0  0  0  0  0  0  0  0  0
   -4.4092   -2.0017    0.0885 C   0  0  0  0  0  0  0  0  0  0  0  0
   -4.8739   -1.8907    1.0892 H   0  0  0  0  0  0  0  0  0  0  0  0
   -3.3267   -2.1800    0.2269 H   0  0  0  0  0  0  0  0  0  0  0  0
   -4.8468   -2.8992   -0.3951 H   0  0  0  0  0  0  0  0  0  0  0  0
   -6.2006   -0.5999   -0.9526 C   0  0  0  0  0  0  0  0  0  0  0  0
   -6.4648    0.2687   -1.5897 H   0  0  0  0  0  0  0  0  0  0  0  0
   -6.6067   -1.5068   -1.4431 H   0  0  0  0  0  0  0  0  0  0  0  0
   -6.7199   -0.4899    0.0211 H   0  0  0  0  0  0  0  0  0  0  0  0
    0.3707    1.6250   -1.0820 S   0  0  0  0  0  0  0  0  0  0  0  0
    1.8213   -0.4182    0.2310 O   0  5  0  0  0  0  0  0  0  0  0  0
    2.6531    0.5443   -0.1344 C   0  0  0  0  0  0  0  0  0  0  0  0
    2.0956    1.6848   -0.7845 C   0  0  0  0  0  0  0  0  0  0  0  0
    2.8918    2.7798   -1.1738 C   0  0  0  0  0  0  0  0  0  0  0  0
    2.4240    3.6523   -1.6538 H   0  0  0  0  0  0  0  0  0  0  0  0
    4.2724    2.7303   -0.9554 C   0  0  0  0  0  0  0  0  0  0  0  0
    4.8151    1.5817   -0.3227 C   0  0  0  0  0  0  0  0  0  0  0  0
    5.9013    1.5670   -0.1542 H   0  0  0  0  0  0  0  0  0  0  0  0
    4.0592    0.4795    0.1035 C   0  0  0  0  0  0  0  0  0  0  0  0
    4.6789   -0.7516    0.7837 C   0  0  0  0  0  0  0  0  0  0  0  0
    4.0532   -0.9411    2.1866 C   0  0  0  0  0  0  0  0  0  0  0  0
    2.9628   -1.1172    2.1304 H   0  0  0  0  0  0  0  0  0  0  0  0
    4.5154   -1.8167    2.6869 H   0  0  0  0  0  0  0  0  0  0  0  0
    4.2340   -0.0503    2.8223 H   0  0  0  0  0  0  0  0  0  0  0  0
    4.4094   -2.0017   -0.0887 C   0  0  0  0  0  0  0  0  0  0  0  0
    4.8740   -1.8905   -1.0894 H   0  0  0  0  0  0  0  0  0  0  0  0
    3.3269   -2.1802   -0.2269 H   0  0  0  0  0  0  0  0  0  0  0  0
    4.8473   -2.8991    0.3948 H   0  0  0  0  0  0  0  0  0  0  0  0
    6.2007   -0.5997    0.9523 C   0  0  0  0  0  0  0  0  0  0  0  0
    6.4648    0.2690    1.5894 H   0  0  0  0  0  0  0  0  0  0  0  0
    6.6070   -1.5065    1.4427 H   0  0  0  0  0  0  0  0  0  0  0  0
    6.7198   -0.4895   -0.0215 H   0  0  0  0  0  0  0  0  0  0  0  0
    5.1783    3.8599   -1.3757 C   0  0  0  0  0  0  0  0  0  0  0  0
    4.6059    4.7066   -1.8008 H   0  0  0  0  0  0  0  0  0  0  0  0
    5.7686    4.2441   -0.5180 H   0  0  0  0  0  0  0  0  0  0  0  0
    5.9080    3.5261   -2.1431 H   0  0  0  0  0  0  0  0  0  0  0  0
  2  3  1  0  0  0  0
  3  4  1  0  0  0  0
  4  1  1  0  0  0  0
  4  5  2  0  0  0  0
  5  6  1  0  0  0  0
  7  5  1  0  0  0  0
  7 11  1  0  0  0  0
  8  7  2  0  0  0  0
  9  8  1  0  0  0  0
 10  3  2  0  0  0  0
 10  8  1  0  0  0  0
 11 12  1  0  0  0  0
 11 14  1  0  0  0  0
 13 11  1  0  0  0  0
 15 10  1  0  0  0  0
 15 20  1  0  0  0  0
 16 17  1  0  0  0  0
 16 15  1  0  0  0  0
 18 16  1  0  0  0  0
 19 16  1  0  0  0  0
 20 22  1  0  0  0  0
 20 21  1  0  0  0  0
 23 20  1  0  0  0  0
 24 15  1  0  0  0  0
 24 27  1  0  0  0  0
 25 24  1  0  0  0  0
 26 24  1  0  0  0  0
 28 31  1  0  0  0  0
 28  1  1  0  0  0  0
 30 37  1  0  0  0  0
 30 29  1  0  0  0  0
 31 30  2  0  0  0  0
 32 34  2  0  0  0  0
 32 31  1  0  0  0  0
 33 32  1  0  0  0  0
 34 35  1  0  0  0  0
 35 36  1  0  0  0  0
 35 37  2  0  0  0  0
 37 38  1  0  0  0  0
 38 47  1  0  0  0  0
 38 39  1  0  0  0  0
 39 41  1  0  0  0  0
 39 42  1  0  0  0  0
 40 39  1  0  0  0  0
 43 46  1  0  0  0  0
 43 38  1  0  0  0  0
 44 43  1  0  0  0  0
 45 43  1  0  0  0  0
 47 49  1  0  0  0  0
 47 48  1  0  0  0  0
 50 47  1  0  0  0  0
 51 34  1  0  0  0  0
 51 53  1  0  0  0  0
 52 51  1  0  0  0  0
 54 51  1  0  0  0  0
M  CHG  2   2  -1  29  -1
M  END
