1,2,24,25
q = -2.0, confidence = 0.848

 46 48  0  0  1  0  0  0  0  0999 V2000
    1.0190   -0.0862   -1.3854 S   0  0  0  0  0  0  0  0  0  0  0  0
    1.5572    1.5379    0.9641 O   0  5  0  0  0  0  0  0  0  0  0  0
    2.5768    0.7340    0.6908 C   0  0  0  0  0  0  0  0  0  0  0  0
    2.5281   -0.1311   -0.4382 C   0  0  0  0  0  0  0  0  0  0  0  0
    3.6332   -0.9275   -0.7881 C   0  0  0  0  0  0  0  0  0  0  0  0
    3.5848   -1.5419   -1.7001 H   0  0  0  0  0  0  0  0  0  0  0  0
    4.7987   -0.9325   -0.0010 C   0  0  0  0  0  0  0  0  0  0  0  0
    4.8243   -0.0979    1.1412 C   0  0  0  0  0  0  0  0  0  0  0  0
    5.7279   -0.0831    1.7717 H   0  0  0  0  0  0  0  0  0  0  0  0
    3.7481    0.7237    1.4853 C   0  0  0  0  0  0  0  0  0  0  0  0
    3.7871    1.3857    2.3622 H   0  0  0  0  0  0  0  0  0  0  0  0
    5.9913   -1.7803   -0.3668 C   0  0  0  0  0  0  0  0  0  0  0  0
    5.7908   -2.4022   -1.2606 H   0  0  0  0  0  0  0  0  0  0  0  0
    6.2763   -2.4610    0.4625 H   0  0  0  0  0  0  0  0  0  0  0  0
    6.8813   -1.1538   -0.5868 H   0  0  0  0  0  0  0  0  0  0  0  0
    0.1007   -1.5814   -0.7581 C   0  0  1  0  0  0  0  0  0  0  0  0
   -0.8874   -1.4698   -1.2575 H   0  0  0  0  0  0  0  0  0  0  0  0
    0.7853   -2.8678   -1.2463 C   0  0  0  0  0  0  0  0  0  0  0  0
    0.8563   -2.8419   -2.3526 H   0  0  0  0  0  0  0  0  0  0  0  0
    1.8254   -2.8839   -0.8558 H   0  0  0  0  0  0  0  0  0  0  0  0
    0.0561   -4.1268   -0.7630 C   0  0  0  0  0  0  0  0  0  0  0  0
    0.5940   -5.0288   -1.1209 H   0  0  0  0  0  0  0  0  0  0  0  0
   -0.9617   -4.1665   -1.2110 H   0  0  0  0  0  0  0  0  0  0  0  0
   -1.0189   -0.0861    1.3854 S   0  0  0  0  0  0  0  0  0  0  0  0
   -1.5570    1.5380   -0.9641 O   0  5  0  0  0  0  0  0  0  0  0  0
   -2.5768    0.7342   -0.6907 C   0  0  0  0  0  0  0  0  0  0  0  0
   -2.5280   -0.1309    0.4382 C   0  0  0  0  0  0  0  0  0  0  0  0
   -3.6331   -0.9273    0.7882 C   0  0  0  0  0  0  0  0  0  0  0  0
   -3.5848   -1.5417    1.7002 H   0  0  0  0  0  0  0  0  0  0  0  0
   -4.7987   -0.9321    0.0011 C   0  0  0  0  0  0  0  0  0  0  0  0
   -4.8243   -0.0975   -1.1411 C   0  0  0  0  0  0  0  0  0  0  0  0
   -5.7279   -0.0827   -1.7715 H   0  0  0  0  0  0  0  0  0  0  0  0
   -3.7481    0.7240   -1.4852 C   0  0  0  0  0  0  0  0  0  0  0  0
   -3.7871    1.3860   -2.3621 H   0  0  0  0  0  0  0  0  0  0  0  0
   -5.9913   -1.7799    0.3669 C   0  0  0  0  0  0  0  0  0  0  0  0
   -5.7908   -2.4018    1.2607 H   0  0  0  0  0  0  0  0  0  0  0  0
   -6.2764   -2.4606   -0.4624 H   0  0  0  0  0  0  0  0  0  0  0  0
   -6.8813   -1.1534    0.5870 H   0  0  0  0  0  0  0  0  0  0  0  0
   -0.1009   -1.5814    0.7581 C   0  0  1  0  0  0  0  0  0  0  0  0
    0.8872   -1.4701    1.2575 H   0  0  0  0  0  0  0  0  0  0  0  0
   -0.7858   -2.8677    1.2462 C   0  0  0  0  0  0  0  0  0  0  0  0
   -0.8568   -2.8419    2.3525 H   0  0  0  0  0  0  0  0  0  0  0  0
   -1.8259   -2.8835    0.8557 H   0  0  0  0  0  0  0  0  0  0  0  0
   -0.0569   -4.1268    0.7628 C   0  0  0  0  0  0  0  0  0  0  0  0
   -0.5950   -5.0287    1.1207 H   0  0  0  0  0  0  0  0  0  0  0  0
    0.9608   -4.1668    1.2108 H   0  0  0  0  0  0  0  0  0  0  0  0
  1 16  1  0  0  0  0
  1  4  1  0  0  0  0
  3  2  1  0  0  0  0
  3 10  1  0  0  0  0
  4  3  2  0  0  0  0
  5  4  1  0  0  0  0
  5  7  2  0  0  0  0
  6  5  1  0  0  0  0
  7  8  1  0  0  0  0
  8 10  2  0  0  0  0
  8  9  1  0  0  0  0
 10 11  1  0  0  0  0
 12  7  1  0  0  0  0
 12 14  1  0  0  0  0
 13 12  1  0  0  0  0
 15 12  1  0  0  0  0
 16 17  1  6  0  0  0
 16 39  1  0  0  0  0
 18 20  1  0  0  0  0
 18 21  1  0  0  0  0
 18 16  1  0  0  0  0
 19 18  1  0  0  0  0
 21 44  1  0  0  0  0
 22 21  1  0  0  0  0
 23 21  1  0  0  0  0
 25 26  1  0  0  0  0
 26 27  1  0  0  0  0
 27 28  2  0  0  0  0
 27 24  1  0  0  0  0
 28 29  1  0  0  0  0
 30 35  1  0  0  0  0
 30 28  1  0  0  0  0
 31 30  2  0  0  0  0
 32 31  1  0  0  0  0
 33 31  1  0  0  0  0
 33 26  2  0  0  0  0
 34 33  1  0  0  0  0
 35 38  1  0  0  0  0
 35 36  1  0  0  0  0
 37 35  1  0  0  0  0
 39 41  1  0  0  0  0
 39 40  1  1  0  0  0
 39 24  1  0  0  0  0
 41 42  1  0  0  0  0
 43 41  1  0  0  0  0
 44 45  1  0  0  0  0
 44 46  1  0  0  0  0
 44 41  1  0  0  0  0
M  CHG  2   2  -1  25  -1
M  END
