1,2,15,16
q = -2.0, confidence = 0.968

 38 38  0  0  0  0  0  0  0  0999 V2000
    1.1015    1.4228   -1.8548 S   0  0  0  0  0  0  0  0  0  0  0  0
   -1.7607   -0.0661   -2.0536 S   0  0  0  0  0  0  0  0  0  0  0  0
   -4.3133   -1.8310    1.0053 F   0  0  0  0  0  0  0  0  0  0  0  0
   -3.8107   -0.5763    2.7050 F   0  0  0  0  0  0  0  0  0  0  0  0
   -5.1861    0.1669    1.1760 F   0  0  0  0  0  0  0  0  0  0  0  0
   -1.4236    1.9261    0.4631 F   0  0  0  0  0  0  0  0  0  0  0  0
   -2.6590    1.7541    2.2442 F   0  0  0  0  0  0  0  0  0  0  0  0
   -3.5689    2.3357    0.3485 F   0  0  0  0  0  0  0  0  0  0  0  0
    2.9344    2.0969    2.9273 F   0  0  0  0  0  0  0  0  0  0  0  0
    2.9086    3.8851    1.6707 F   0  0  0  0  0  0  0  0  0  0  0  0
    1.0385    2.9084    2.2285 F   0  0  0  0  0  0  0  0  0  0  0  0
    3.8495    0.7154   -0.9263 F   0  0  0  0  0  0  0  0  0  0  0  0
    4.4845    0.7484    1.1600 F   0  0  0  0  0  0  0  0  0  0  0  0
    4.5674    2.5744   -0.0335 F   0  0  0  0  0  0  0  0  0  0  0  0
    1.7164    0.6098    0.8812 O   0  0  0  0  0  1  0  0  0  0  0  0
   -1.7285   -0.6771    0.8964 O   0  0  0  0  0  1  0  0  0  0  0  0
   -0.3552    2.3089   -2.4008 C   0  0  0  0  0  0  0  0  0  0  0  0
   -0.2405    3.6575   -2.7960 C   0  0  0  0  0  0  0  0  0  0  0  0
    0.7456    4.1437   -2.7726 H   0  0  0  0  0  0  0  0  0  0  0  0
   -1.3672    4.3772   -3.2092 C   0  0  0  0  0  0  0  0  0  0  0  0
   -1.2637    5.4334   -3.4985 H   0  0  0  0  0  0  0  0  0  0  0  0
   -2.6186    3.7428   -3.2722 C   0  0  0  0  0  0  0  0  0  0  0  0
   -3.5065    4.2964   -3.6112 H   0  0  0  0  0  0  0  0  0  0  0  0
   -2.7359    2.3935   -2.9212 C   0  0  0  0  0  0  0  0  0  0  0  0
   -3.7113    1.8910   -2.9972 H   0  0  0  0  0  0  0  0  0  0  0  0
   -1.6170    1.6711   -2.4638 C   0  0  0  0  0  0  0  0  0  0  0  0
    1.7065    2.5810   -0.5504 C   0  0  0  0  0  0  0  0  0  0  0  0
    2.4062    3.3204   -0.9827 H   0  0  0  0  0  0  0  0  0  0  0  0
    0.8126    3.0984   -0.1568 H   0  0  0  0  0  0  0  0  0  0  0  0
   -3.2165   -0.1474   -0.9451 C   0  0  0  0  0  0  0  0  0  0  0  0
   -4.0031    0.5517   -1.2836 H   0  0  0  0  0  0  0  0  0  0  0  0
   -3.5811   -1.1814   -1.0888 H   0  0  0  0  0  0  0  0  0  0  0  0
    2.3680    1.7693    0.6066 C   0  0  0  0  0  0  0  0  0  0  0  0
    3.8462    1.4541    0.2113 C   0  0  0  0  0  0  0  0  0  0  0  0
    2.3258    2.6812    1.8776 C   0  0  0  0  0  0  0  0  0  0  0  0
   -2.8471    0.0106    0.5648 C   0  0  0  0  0  0  0  0  0  0  0  0
   -2.6491    1.5264    0.9188 C   0  0  0  0  0  0  0  0  0  0  0  0
   -4.0570   -0.5563    1.3817 C   0  0  0  0  0  0  0  0  0  0  0  0
  1 27  1  0  0  0  0
  2 30  1  0  0  0  0
  3 38  1  0  0  0  0
  5 38  1  0  0  0  0
  6 37  1  0  0  0  0
  8 37  1  0  0  0  0
 10 35  1  0  0  0  0
 12 34  1  0  0  0  0
 14 34  1  0  0  0  0
 17  1  1  0  0  0  0
 18 19  1  0  0  0  0
 18 17  2  0  0  0  0
 20 18  1  0  0  0  0
 21 20  1  0  0  0  0
 22 20  2  0  0  0  0
 22 24  1  0  0  0  0
 23 22  1  0  0  0  0
 24 26  2  0  0  0  0
 25 24  1  0  0  0  0
 26 17  1  0  0  0  0
 26  2  1  0  0  0  0
 27 29  1  0  0  0  0
 27 33  1  0  0  0  0
 28 27  1  0  0  0  0
 30 36  1  0  0  0  0
 31 30  1  0  0  0  0
 32 30  1  0  0  0  0
 33 15  1  0  0  0  0
 33 35  1  0  0  0  0
 34 33  1  0  0  0  0
 34 13  1  0  0  0  0
 35 11  1  0  0  0  0
 35  9  1  0  0  0  0
 36 16  1  0  0  0  0
 36 37  1  0  0  0  0
 36 38  1  0  0  0  0
 37  7  1  0  0  0  0
 38  4  1  0  0  0  0
M  END
