1,3,6
q = 0.0, confidence = 0.912

 56 63  0  0  1  0  0  0  0  0999 V2000
    1.0567    0.6227    0.7287 B   0  0  0  0  0  0  0  0  0  0  0  0
    1.7289    1.1560    1.6093 H   0  0  0  0  0  0  0  0  0  0  0  0
   -1.6642    0.6782    0.1392 N   0  0  0  0  0  2  0  0  0  0  0  0
   -3.6339    1.4972   -0.9086 N   0  0  0  0  0  0  0  0  0  0  0  0
    0.3990    1.7290   -0.1742 N   0  0  0  0  0  0  0  0  0  0  0  0
    0.0879   -1.4259   -0.6120 N   0  0  0  0  0  2  0  0  0  0  0  0
    2.0250   -0.2507   -0.1669 N   0  0  0  0  0  0  0  0  0  0  0  0
    4.1467   -0.7923   -1.0733 N   0  0  0  0  0  0  0  0  0  0  0  0
   -4.0489   -0.6111    0.6015 S   0  0  0  0  0  0  0  0  0  0  0  0
   -1.5193    2.9478   -1.4796 S   0  0  0  0  0  0  0  0  0  0  0  0
    1.9575   -1.9698   -2.3717 S   0  0  0  0  0  0  0  0  0  0  0  0
    4.2579    0.6612    1.1289 S   0  0  0  0  0  0  0  0  0  0  0  0
   -5.4195    0.0984   -0.2385 C   0  0  0  0  0  0  0  0  0  0  0  0
   -6.7617   -0.3063   -0.2278 C   0  0  0  0  0  0  0  0  0  0  0  0
   -7.0872   -1.1759    0.3618 H   0  0  0  0  0  0  0  0  0  0  0  0
   -7.6818    0.4292   -0.9901 C   0  0  0  0  0  0  0  0  0  0  0  0
   -8.7404    0.1296   -0.9959 H   0  0  0  0  0  0  0  0  0  0  0  0
   -7.2650    1.5453   -1.7466 C   0  0  0  0  0  0  0  0  0  0  0  0
   -8.0054    2.1058   -2.3368 H   0  0  0  0  0  0  0  0  0  0  0  0
   -5.9254    1.9504   -1.7587 C   0  0  0  0  0  0  0  0  0  0  0  0
   -5.5894    2.8175   -2.3449 H   0  0  0  0  0  0  0  0  0  0  0  0
   -4.9819    1.2274   -0.9999 C   0  0  0  0  0  0  0  0  0  0  0  0
   -3.0069    0.6482   -0.1286 C   0  0  0  0  0  0  0  0  0  0  0  0
   -0.9289    1.6564   -0.4249 C   0  0  2  0  0  3  0  0  0  0  0  0
    1.0178    2.8230   -0.7814 C   0  0  0  0  0  0  0  0  0  0  0  0
    2.3727    3.1905   -0.6925 C   0  0  0  0  0  0  0  0  0  0  0  0
    3.0746    2.6007   -0.0888 H   0  0  0  0  0  0  0  0  0  0  0  0
    2.8034    4.3291   -1.3852 C   0  0  0  0  0  0  0  0  0  0  0  0
    3.8618    4.6229   -1.3227 H   0  0  0  0  0  0  0  0  0  0  0  0
    1.9099    5.0995   -2.1567 C   0  0  0  0  0  0  0  0  0  0  0  0
    2.2738    5.9878   -2.6938 H   0  0  0  0  0  0  0  0  0  0  0  0
    0.5563    4.7434   -2.2435 C   0  0  0  0  0  0  0  0  0  0  0  0
   -0.1500    5.3415   -2.8383 H   0  0  0  0  0  0  0  0  0  0  0  0
    0.1216    3.6047   -1.5508 C   0  0  0  0  0  0  0  0  0  0  0  0
    0.3581   -2.6956   -2.5703 C   0  0  0  0  0  0  0  0  0  0  0  0
   -0.0724   -3.5828   -3.5680 C   0  0  0  0  0  0  0  0  0  0  0  0
    0.6110   -3.9063   -4.3669 H   0  0  0  0  0  0  0  0  0  0  0  0
   -1.3980   -4.0380   -3.5261 C   0  0  0  0  0  0  0  0  0  0  0  0
   -1.7585   -4.7260   -4.3050 H   0  0  0  0  0  0  0  0  0  0  0  0
   -2.2738   -3.6145   -2.5031 C   0  0  0  0  0  0  0  0  0  0  0  0
   -3.3142   -3.9722   -2.4960 H   0  0  0  0  0  0  0  0  0  0  0  0
   -1.8456   -2.7385   -1.4999 C   0  0  0  0  0  0  0  0  0  0  0  0
   -2.5203   -2.3902   -0.7048 H   0  0  0  0  0  0  0  0  0  0  0  0
   -0.5158   -2.2782   -1.5280 C   0  0  0  0  0  0  0  0  0  0  0  0
    1.3509   -1.1406   -0.9471 C   0  0  2  0  0  3  0  0  0  0  0  0
    3.3937   -0.1973   -0.1837 C   0  0  0  0  0  0  0  0  0  0  0  0
    5.4886   -0.6116   -0.7986 C   0  0  0  0  0  0  0  0  0  0  0  0
    6.5634   -1.1122   -1.5610 C   0  0  0  0  0  0  0  0  0  0  0  0
    6.3487   -1.7119   -2.4570 H   0  0  0  0  0  0  0  0  0  0  0  0
    7.8746   -0.8328   -1.1584 C   0  0  0  0  0  0  0  0  0  0  0  0
    8.7173   -1.2212   -1.7499 H   0  0  0  0  0  0  0  0  0  0  0  0
    8.1330   -0.0598   -0.0068 C   0  0  0  0  0  0  0  0  0  0  0  0
    9.1718    0.1474    0.2907 H   0  0  0  0  0  0  0  0  0  0  0  0
    7.0800    0.4503    0.7679 C   0  0  0  0  0  0  0  0  0  0  0  0
    7.2821    1.0532    1.6653 H   0  0  0  0  0  0  0  0  0  0  0  0
    5.7666    0.1676    0.3680 C   0  0  0  0  0  0  0  0  0  0  0  0
  1  2  1  0  0  0  0
  4 23  2  0  0  0  0
  5  1  1  0  0  0  0
  7  1  1  0  0  0  0
  8 47  1  0  0  0  0
  8 46  2  0  0  0  0
 10 24  1  0  0  0  0
 11 45  1  0  0  0  0
 13 14  1  0  0  0  0
 13  9  1  0  0  0  0
 14 15  1  0  0  0  0
 16 14  2  0  0  0  0
 17 16  1  0  0  0  0
 18 16  1  0  0  0  0
 19 18  1  0  0  0  0
 20 18  2  0  0  0  0
 20 22  1  0  0  0  0
 21 20  1  0  0  0  0
 22  4  1  0  0  0  0
 22 13  2  0  0  0  0
 23  3  1  0  0  0  0
 23  9  1  0  0  0  0
 24  5  1  0  0  0  0
 24  3  1  1  0  0  0
 25 26  1  0  0  0  0
 25  5  1  0  0  0  0
 26 27  1  0  0  0  0
 28 29  1  0  0  0  0
 28 26  2  0  0  0  0
 30 28  1  0  0  0  0
 31 30  1  0  0  0  0
 32 30  2  0  0  0  0
 32 34  1  0  0  0  0
 33 32  1  0  0  0  0
 34 10  1  0  0  0  0
 34 25  2  0  0  0  0
 35 11  1  0  0  0  0
 35 44  1  0  0  0  0
 36 38  1  0  0  0  0
 36 35  2  0  0  0  0
 37 36  1  0  0  0  0
 38 40  2  0  0  0  0
 39 38  1  0  0  0  0
 40 41  1  0  0  0  0
 40 42  1  0  0  0  0
 42 43  1  0  0  0  0
 44 42  2  0  0  0  0
 44  6  1  0  0  0  0
 45  6  1  0  0  0  0
 45  7  1  6  0  0  0
 46  7  1  0  0  0  0
 46 12  1  0  0  0  0
 47 56  1  0  0  0  0
 48 50  1  0  0  0  0
 48 47  2  0  0  0  0
 49 48  1  0  0  0  0
 50 52  2  0  0  0  0
 51 50  1  0  0  0  0
 52 53  1  0  0  0  0
 52 54  1  0  0  0  0
 54 55  1  0  0  0  0
 56 54  2  0  0  0  0
 56 12  1  0  0  0  0
M  END
