1,2,3,4,6
q = -2.0, confidence = 0.832

 54 55  0  0  1  0  0  0  0  0999 V2000
    1.5398    1.2961   -0.2636 O   0  5  0  0  0  0  0  0  0  0  0  0
   -1.5424   -0.5747    1.0192 O   0  5  0  0  0  0  0  0  0  0  0  0
    1.1916   -0.9488    1.1570 N   0  0  0  0  0  2  0  0  0  0  0  0
   -0.1096    1.4753    1.9822 N   0  0  0  0  0  0  0  0  0  0  0  0
   -1.1229    1.3771    2.1602 H   0  0  0  0  0  0  0  0  0  0  0  0
   -1.2145    1.5692   -0.5625 N   0  0  0  0  0  2  0  0  0  0  0  0
    2.5354    0.6783   -0.8422 C   0  0  0  0  0  0  0  0  0  0  0  0
    3.3035    1.3871   -1.8125 C   0  0  0  0  0  0  0  0  0  0  0  0
    3.0178    2.4297   -2.0159 H   0  0  0  0  0  0  0  0  0  0  0  0
    4.3344    0.7703   -2.5142 C   0  0  0  0  0  0  0  0  0  0  0  0
    4.8833    1.3371   -3.2829 H   0  0  0  0  0  0  0  0  0  0  0  0
    4.6585   -0.5813   -2.2681 C   0  0  0  0  0  0  0  0  0  0  0  0
    5.4443   -1.0846   -2.8493 H   0  0  0  0  0  0  0  0  0  0  0  0
    3.9711   -1.2718   -1.2725 C   0  0  0  0  0  0  0  0  0  0  0  0
    4.2288   -2.3247   -1.0918 H   0  0  0  0  0  0  0  0  0  0  0  0
    2.9291   -0.6710   -0.5160 C   0  0  0  0  0  0  0  0  0  0  0  0
    2.3362   -1.3463    0.6364 C   0  0  1  0  0  3  0  0  0  0  0  0
    3.0819   -2.5155    1.2448 C   0  0  0  0  0  0  0  0  0  0  0  0
    3.2641   -2.3605    2.3267 H   0  0  0  0  0  0  0  0  0  0  0  0
    4.0649   -2.6617    0.7714 H   0  0  0  0  0  0  0  0  0  0  0  0
    2.4911   -3.4472    1.1302 H   0  0  0  0  0  0  0  0  0  0  0  0
    0.6508   -1.5792    2.3573 C   0  0  0  0  0  0  0  0  0  0  0  0
    1.4006   -2.2450    2.8204 H   0  0  0  0  0  0  0  0  0  0  0  0
   -0.2043   -2.2095    2.0434 H   0  0  0  0  0  0  0  0  0  0  0  0
    0.1699   -0.5423    3.4023 C   0  0  0  0  0  0  0  0  0  0  0  0
   -0.9370   -0.5610    3.4582 H   0  0  0  0  0  0  0  0  0  0  0  0
    0.5485   -0.8296    4.4038 H   0  0  0  0  0  0  0  0  0  0  0  0
    0.6178    0.8887    3.1228 C   0  0  0  0  0  0  0  0  0  0  0  0
    0.4570    1.5198    4.0274 H   0  0  0  0  0  0  0  0  0  0  0  0
    1.7000    0.9305    2.8805 H   0  0  0  0  0  0  0  0  0  0  0  0
    0.2342    2.8919    1.7636 C   0  0  0  0  0  0  0  0  0  0  0  0
    1.2763    2.9115    1.3872 H   0  0  0  0  0  0  0  0  0  0  0  0
    0.2060    3.4354    2.7366 H   0  0  0  0  0  0  0  0  0  0  0  0
   -0.6951    3.5762    0.7650 C   0  0  0  0  0  0  0  0  0  0  0  0
   -0.3718    4.6334    0.6682 H   0  0  0  0  0  0  0  0  0  0  0  0
   -1.7334    3.6000    1.1679 H   0  0  0  0  0  0  0  0  0  0  0  0
   -0.7021    2.9322   -0.6283 C   0  0  0  0  0  0  0  0  0  0  0  0
   -1.2845    3.5626   -1.3252 H   0  0  0  0  0  0  0  0  0  0  0  0
    0.3385    2.8669   -1.0026 H   0  0  0  0  0  0  0  0  0  0  0  0
   -3.2139    2.2965   -1.7888 C   0  0  0  0  0  0  0  0  0  0  0  0
   -3.3744    3.1900   -1.1532 H   0  0  0  0  0  0  0  0  0  0  0  0
   -4.2087    1.9091   -2.0593 H   0  0  0  0  0  0  0  0  0  0  0  0
   -2.7070    2.6359   -2.7154 H   0  0  0  0  0  0  0  0  0  0  0  0
   -2.3895    1.2529   -1.0584 C   0  0  2  0  0  3  0  0  0  0  0  0
   -2.9660   -0.0797   -0.8769 C   0  0  0  0  0  0  0  0  0  0  0  0
   -4.0240   -0.5494   -1.6982 C   0  0  0  0  0  0  0  0  0  0  0  0
   -4.3296    0.0416   -2.5737 H   0  0  0  0  0  0  0  0  0  0  0  0
   -4.6676   -1.7623   -1.4559 C   0  0  0  0  0  0  0  0  0  0  0  0
   -5.4661   -2.1087   -2.1276 H   0  0  0  0  0  0  0  0  0  0  0  0
   -4.2791   -2.5356   -0.3426 C   0  0  0  0  0  0  0  0  0  0  0  0
   -4.7833   -3.4918   -0.1326 H   0  0  0  0  0  0  0  0  0  0  0  0
   -3.2378   -2.1130    0.4801 C   0  0  0  0  0  0  0  0  0  0  0  0
   -2.9030   -2.7178    1.3353 H   0  0  0  0  0  0  0  0  0  0  0  0
   -2.5329   -0.9034    0.2231 C   0  0  0  0  0  0  0  0  0  0  0  0
  3 22  1  0  0  0  0
  4  5  1  0  0  0  0
  4 28  1  0  0  0  0
  7 16  1  0  0  0  0
  7  1  1  0  0  0  0
  8  7  2  0  0  0  0
  9  8  1  0  0  0  0
 10 12  2  0  0  0  0
 10  8  1  0  0  0  0
 11 10  1  0  0  0  0
 12 14  1  0  0  0  0
 13 12  1  0  0  0  0
 14 15  1  0  0  0  0
 14 16  2  0  0  0  0
 16 17  1  0  0  0  0
 17  3  1  1  0  0  0
 17 18  1  0  0  0  0
 18 19  1  0  0  0  0
 20 18  1  0  0  0  0
 21 18  1  0  0  0  0
 22 23  1  0  0  0  0
 22 25  1  0  0  0  0
 24 22  1  0  0  0  0
 25 26  1  0  0  0  0
 25 27  1  0  0  0  0
 28 25  1  0  0  0  0
 28 29  1  0  0  0  0
 30 28  1  0  0  0  0
 31  4  1  0  0  0  0
 31 33  1  0  0  0  0
 32 31  1  0  0  0  0
 34 36  1  0  0  0  0
 34 31  1  0  0  0  0
 35 34  1  0  0  0  0
 37  6  1  0  0  0  0
 37 34  1  0  0  0  0
 38 37  1  0  0  0  0
 39 37  1  0  0  0  0
 40 41  1  0  0  0  0
 40 44  1  0  0  0  0
 42 40  1  0  0  0  0
 43 40  1  0  0  0  0
 44 45  1  0  0  0  0
 44  6  1  1  0  0  0
 45 54  1  0  0  0  0
 46 48  1  0  0  0  0
 46 45  2  0  0  0  0
 47 46  1  0  0  0  0
 48 50  2  0  0  0  0
 49 48  1  0  0  0  0
 50 51  1  0  0  0  0
 50 52  1  0  0  0  0
 52 53  1  0  0  0  0
 54 52  2  0  0  0  0
 54  2  1  0  0  0  0
M  CHG  2   1  -1   2  -1
M  END
