6,11,15,23,28
q = -1.0

 59 60  0  0  0  0  0  0  0  0999 V2000
   -4.9890   -1.4693   -0.3365 N   0  0  0  0  0  0  0  0  0  0  0  0
   -4.3918   -2.1135    0.7413 C   0  0  0  0  0  0  0  0  0  0  0  0
   -4.9695   -2.9837    1.3818 O   0  0  0  0  0  0  0  0  0  0  0  0
   -3.0753   -1.7075    1.0582 N   0  0  0  0  0  0  0  0  0  0  0  0
   -2.3872   -0.7147    0.3744 C   0  0  0  0  0  0  0  0  0  0  0  0
   -1.2033   -0.4776    0.7841 O   0  5  0  0  0  0  0  0  0  0  0  0
   -3.0360   -0.0742   -0.7190 C   0  0  0  0  0  0  0  0  0  0  0  0
   -4.3847   -0.4563   -1.1278 C   0  0  0  0  0  0  0  0  0  0  0  0
   -4.9888    0.0353   -2.0828 O   0  0  0  0  0  0  0  0  0  0  0  0
   -2.3644    0.8615   -1.5503 C   0  0  0  0  0  3  0  0  0  0  0  0
   -1.1943    1.4120   -1.3595 N   0  0  0  0  0  2  0  0  0  0  0  0
   -0.5504    2.1778   -2.4121 C   0  0  0  0  0  0  0  0  0  0  0  0
   -0.0740    3.5578   -1.9526 C   0  0  0  0  0  0  0  0  0  0  0  0
    0.8679    3.5214   -0.7503 C   0  0  0  0  0  0  0  0  0  0  0  0
    0.1901    3.0359    0.4346 N   0  0  0  0  0  2  0  0  0  0  0  0
   -6.3452   -1.8978   -0.6675 C   0  0  0  0  0  0  0  0  0  0  0  0
   -2.4049   -2.3712    2.1739 C   0  0  0  0  0  0  0  0  0  0  0  0
    4.7197   -1.8313   -0.0378 N   0  0  0  0  0  0  0  0  0  0  0  0
    4.3229   -1.8108   -1.3736 C   0  0  0  0  0  0  0  0  0  0  0  0
    4.9616   -2.3906   -2.2443 O   0  0  0  0  0  0  0  0  0  0  0  0
    3.1518   -1.0822   -1.6643 N   0  0  0  0  0  0  0  0  0  0  0  0
    2.3898   -0.4005   -0.7131 C   0  0  0  0  0  0  0  0  0  0  0  0
    1.3825    0.2331   -1.1171 O   0  5  0  0  0  0  0  0  0  0  0  0
    2.8233   -0.4741    0.6532 C   0  0  0  0  0  0  0  0  0  0  0  0
    4.0406   -1.1941    1.0295 C   0  0  0  0  0  0  0  0  0  0  0  0
    4.4773   -1.2707    2.1813 O   0  0  0  0  0  0  0  0  0  0  0  0
    2.1288    0.1264    1.7258 C   0  0  0  0  0  3  0  0  0  0  0  0
    0.9971    0.7953    1.7629 N   0  0  0  0  0  2  0  0  0  0  0  0
    0.4997    1.3284    3.0200 C   0  0  0  0  0  0  0  0  0  0  0  0
    0.1195    2.8205    2.8779 C   0  0  0  0  0  0  0  0  0  0  0  0
    0.8031    3.4613    1.6742 C   0  0  0  0  0  0  0  0  0  0  0  0
    5.9375   -2.5820    0.2557 C   0  0  0  0  0  0  0  0  0  0  0  0
    2.7109   -1.0263   -3.0546 C   0  0  0  0  0  0  0  0  0  0  0  0
   -2.9216    1.1209   -2.4758 H   0  0  0  0  0  0  0  0  0  0  0  0
    0.3254    1.5866   -2.7592 H   0  0  0  0  0  0  0  0  0  0  0  0
   -1.2489    2.2814   -3.2722 H   0  0  0  0  0  0  0  0  0  0  0  0
   -0.9507    4.1867   -1.6908 H   0  0  0  0  0  0  0  0  0  0  0  0
    0.4425    4.0443   -2.8063 H   0  0  0  0  0  0  0  0  0  0  0  0
    1.2307    4.5563   -0.5435 H   0  0  0  0  0  0  0  0  0  0  0  0
    1.7915    2.9302   -0.9815 H   0  0  0  0  0  0  0  0  0  0  0  0
   -6.6679   -1.2976   -1.5353 H   0  0  0  0  0  0  0  0  0  0  0  0
   -7.0207   -1.7361    0.1948 H   0  0  0  0  0  0  0  0  0  0  0  0
   -6.3590   -2.9773   -0.9133 H   0  0  0  0  0  0  0  0  0  0  0  0
   -1.4522   -2.8201    1.8344 H   0  0  0  0  0  0  0  0  0  0  0  0
   -3.0912   -3.1470    2.5526 H   0  0  0  0  0  0  0  0  0  0  0  0
   -2.1740   -1.6409    2.9745 H   0  0  0  0  0  0  0  0  0  0  0  0
    2.6475   -0.0231    2.6977 H   0  0  0  0  0  0  0  0  0  0  0  0
    1.2837    1.1983    3.7972 H   0  0  0  0  0  0  0  0  0  0  0  0
   -0.3827    0.7329    3.3405 H   0  0  0  0  0  0  0  0  0  0  0  0
    0.3870    3.3634    3.8061 H   0  0  0  0  0  0  0  0  0  0  0  0
   -0.9753    2.9322    2.7389 H   0  0  0  0  0  0  0  0  0  0  0  0
    0.6418    4.5664    1.7228 H   0  0  0  0  0  0  0  0  0  0  0  0
    1.9142    3.3182    1.7118 H   0  0  0  0  0  0  0  0  0  0  0  0
    6.1126   -2.4982    1.3418 H   0  0  0  0  0  0  0  0  0  0  0  0
    6.7923   -2.1660   -0.3119 H   0  0  0  0  0  0  0  0  0  0  0  0
    5.8169   -3.6421   -0.0401 H   0  0  0  0  0  0  0  0  0  0  0  0
    1.6598   -1.3639   -3.1320 H   0  0  0  0  0  0  0  0  0  0  0  0
    3.3784   -1.6811   -3.6392 H   0  0  0  0  0  0  0  0  0  0  0  0
    2.7666    0.0121   -3.4383 H   0  0  0  0  0  0  0  0  0  0  0  0
  1  2  1  0  0  0  0
  2  4  1  0  0  0  0
  2  3  2  0  0  0  0
  4 17  1  0  0  0  0
  5  6  1  0  0  0  0
  5  4  1  0  0  0  0
  7  5  2  0  0  0  0
  8  7  1  0  0  0  0
  8  1  1  0  0  0  0
  9  8  2  0  0  0  0
 10 11  1  0  0  0  0
 10  7  1  0  0  0  0
 12 13  1  0  0  0  0
 12 11  1  0  0  0  0
 13 37  1  0  0  0  0
 13 14  1  0  0  0  0
 14 39  1  0  0  0  0
 14 15  1  0  0  0  0
 15 31  1  0  0  0  0
 16  1  1  0  0  0  0
 16 42  1  0  0  0  0
 17 45  1  0  0  0  0
 17 46  1  0  0  0  0
 18 32  1  0  0  0  0
 18 25  1  0  0  0  0
 19 18  1  0  0  0  0
 20 19  2  0  0  0  0
 21 19  1  0  0  0  0
 21 22  1  0  0  0  0
 22 24  2  0  0  0  0
 23 22  1  0  0  0  0
 24 25  1  0  0  0  0
 24 27  1  0  0  0  0
 25 26  2  0  0  0  0
 27 28  1  0  0  0  0
 27 47  1  0  0  0  0
 28 29  1  0  0  0  0
 29 49  1  0  0  0  0
 29 48  1  0  0  0  0
 30 29  1  0  0  0  0
 30 50  1  0  0  0  0
 31 53  1  0  0  0  0
 31 52  1  0  0  0  0
 31 30  1  0  0  0  0
 32 54  1  0  0  0  0
 33 21  1  0  0  0  0
 34 10  1  0  0  0  0
 35 12  1  0  0  0  0
 36 12  1  0  0  0  0
 38 13  1  0  0  0  0
 40 14  1  0  0  0  0
 41 16  1  0  0  0  0
 43 16  1  0  0  0  0
 44 17  1  0  0  0  0
 51 30  1  0  0  0  0
 55 32  1  0  0  0  0
 56 32  1  0  0  0  0
 57 33  1  0  0  0  0
 58 33  1  0  0  0  0
 59 33  1  0  0  0  0
M  CHG  2   6  -1  23  -1
M  END
