5,6,8,9,10
q = -3.0, confidence = 0.346

 44 46  0  0  0  0  0  0  0  0999 V2000
    2.1315   -0.1116   -2.8322 Br  0  0  0  0  0  0  0  0  0  0  0  0
    2.5902   -0.5739    2.5527 Br  0  0  0  0  0  0  0  0  0  0  0  0
    4.8420    4.0216   -0.2906 Cl  0  0  0  0  0  0  0  0  0  0  0  0
    3.1654   -4.8853   -0.9318 Cl  0  0  0  0  0  0  0  0  0  0  0  0
   -0.1094    0.9189   -1.0946 O   0  5  0  0  0  0  0  0  0  0  0  0
   -0.0524   -0.3792    1.1435 O   0  5  0  0  0  0  0  0  0  0  0  0
   -4.6176    2.8976    0.1870 O   0  0  0  0  0  0  0  0  0  0  0  0
   -3.0339    1.2725   -0.4001 N   0  0  0  0  0  2  0  0  0  0  0  0
   -1.1802    2.2931    0.9650 N   0  0  0  0  0  2  0  0  0  0  0  0
   -1.8912   -0.9484   -0.9021 N   0  0  0  0  0  2  0  0  0  0  0  0
   -3.1403   -0.7825   -1.5462 C   0  0  0  0  0  0  0  0  0  0  0  0
   -3.7791   -1.7151   -2.3823 C   0  0  0  0  0  0  0  0  0  0  0  0
   -5.0220   -1.4041   -2.9532 C   0  0  0  0  0  0  0  0  0  0  0  0
   -5.6359   -0.1677   -2.6840 C   0  0  0  0  0  0  0  0  0  0  0  0
   -5.0213    0.7725   -1.8450 C   0  0  0  0  0  0  0  0  0  0  0  0
   -3.7700    0.4696   -1.2680 C   0  0  0  0  0  0  0  0  0  0  0  0
    1.0416    2.6973    0.1027 C   0  0  0  0  0  0  0  0  0  0  0  0
    2.2332    3.4526    0.2395 C   0  0  0  0  0  0  0  0  0  0  0  0
    3.3650    3.1170   -0.4974 C   0  0  0  0  0  0  0  0  0  0  0  0
    3.3450    2.0426   -1.4165 C   0  0  0  0  0  0  0  0  0  0  0  0
    2.1665    1.3219   -1.5938 C   0  0  0  0  0  0  0  0  0  0  0  0
    0.9752    1.6117   -0.8522 C   0  0  0  0  0  0  0  0  0  0  0  0
    0.1599   -2.2069   -0.4535 C   0  0  0  0  0  0  0  0  0  0  0  0
    0.9509   -3.2948   -0.9033 C   0  0  0  0  0  0  0  0  0  0  0  0
    2.1995   -3.5544   -0.3414 C   0  0  0  0  0  0  0  0  0  0  0  0
    2.7016   -2.7468    0.6973 C   0  0  0  0  0  0  0  0  0  0  0  0
    1.9152   -1.6917    1.1661 C   0  0  0  0  0  0  0  0  0  0  0  0
    0.6329   -1.3813    0.6297 C   0  0  0  0  0  0  0  0  0  0  0  0
   -1.1082   -1.9858   -1.1078 C   0  0  0  0  0  3  0  0  0  0  0  0
   -3.5189    2.3674    0.3006 C   0  0  0  0  0  0  0  0  0  0  0  0
   -2.4747    2.8319    1.3464 C   0  0  0  0  0  0  0  0  0  0  0  0
   -0.1411    3.0899    0.8169 C   0  0  0  0  0  3  0  0  0  0  0  0
   -3.3154   -2.6904   -2.5881 H   0  0  0  0  0  0  0  0  0  0  0  0
   -5.5160   -2.1347   -3.6109 H   0  0  0  0  0  0  0  0  0  0  0  0
   -6.6134    0.0667   -3.1320 H   0  0  0  0  0  0  0  0  0  0  0  0
   -5.4898    1.7358   -1.6105 H   0  0  0  0  0  0  0  0  0  0  0  0
    2.2673    4.2946    0.9454 H   0  0  0  0  0  0  0  0  0  0  0  0
    4.2482    1.7822   -1.9832 H   0  0  0  0  0  0  0  0  0  0  0  0
    0.5813   -3.9289   -1.7220 H   0  0  0  0  0  0  0  0  0  0  0  0
    3.6929   -2.9408    1.1268 H   0  0  0  0  0  0  0  0  0  0  0  0
   -1.4082   -2.7551   -1.8438 H   0  0  0  0  0  0  0  0  0  0  0  0
   -2.4925    3.9386    1.4374 H   0  0  0  0  0  0  0  0  0  0  0  0
   -2.7982    2.3834    2.3106 H   0  0  0  0  0  0  0  0  0  0  0  0
   -0.1961    4.1268    1.2042 H   0  0  0  0  0  0  0  0  0  0  0  0
  1 21  1  0  0  0  0
  4 25  1  0  0  0  0
  5 22  1  0  0  0  0
  7 30  2  0  0  0  0
  8 30  1  0  0  0  0
  9 31  1  0  0  0  0
 11 16  1  0  0  0  0
 11 10  1  0  0  0  0
 12 11  2  0  0  0  0
 13 14  2  0  0  0  0
 13 12  1  0  0  0  0
 14 15  1  0  0  0  0
 15 36  1  0  0  0  0
 15 16  2  0  0  0  0
 16  8  1  0  0  0  0
 17 18  1  0  0  0  0
 17 32  1  0  0  0  0
 18 37  1  0  0  0  0
 19  3  1  0  0  0  0
 19 18  2  0  0  0  0
 20 19  1  0  0  0  0
 21 20  2  0  0  0  0
 21 22  1  0  0  0  0
 22 17  2  0  0  0  0
 23 28  1  0  0  0  0
 24 23  2  0  0  0  0
 24 25  1  0  0  0  0
 25 26  2  0  0  0  0
 26 40  1  0  0  0  0
 26 27  1  0  0  0  0
 27  2  1  0  0  0  0
 28  6  1  0  0  0  0
 28 27  2  0  0  0  0
 29 10  1  0  0  0  0
 29 23  1  0  0  0  0
 30 31  1  0  0  0  0
 31 42  1  0  0  0  0
 31 43  1  0  0  0  0
 32  9  1  0  0  0  0
 32 44  1  0  0  0  0
 33 12  1  0  0  0  0
 34 13  1  0  0  0  0
 35 14  1  0  0  0  0
 38 20  1  0  0  0  0
 39 24  1  0  0  0  0
 41 29  1  0  0  0  0
M  CHG  2   5  -1   6  -1
M  END
