1,2,3,4,6
q = -2.0, confidence = 0.852

 45 46  0  0  0  0  0  0  0  0999 V2000
   -0.5539    0.9335    1.2975 O   0  5  0  0  0  0  0  0  0  0  0  0
    0.9658    0.0824   -0.8255 O   0  5  0  0  0  0  0  0  0  0  0  0
   -1.5751    0.6727   -1.2047 N   0  0  0  0  0  2  0  0  0  0  0  0
   -2.3361   -1.0397    0.8721 N   0  0  0  0  0  0  0  0  0  0  0  0
   -2.5165   -0.1895    1.4336 H   0  0  0  0  0  0  0  0  0  0  0  0
    0.2562   -1.5444    1.3031 N   0  0  0  0  0  2  0  0  0  0  0  0
   -0.1563    2.1243    0.9243 C   0  0  0  0  0  0  0  0  0  0  0  0
    0.5326    2.9578    1.8508 C   0  0  0  0  0  0  0  0  0  0  0  0
    0.7427    2.5404    2.8463 H   0  0  0  0  0  0  0  0  0  0  0  0
    0.9418    4.2435    1.4989 C   0  0  0  0  0  0  0  0  0  0  0  0
    1.4897    4.8536    2.2344 H   0  0  0  0  0  0  0  0  0  0  0  0
    0.6718    4.7708    0.2160 C   0  0  0  0  0  0  0  0  0  0  0  0
    1.0021    5.7847   -0.0515 H   0  0  0  0  0  0  0  0  0  0  0  0
   -0.0294    3.9884   -0.6996 C   0  0  0  0  0  0  0  0  0  0  0  0
   -0.2733    4.3875   -1.6976 H   0  0  0  0  0  0  0  0  0  0  0  0
   -0.4410    2.6712   -0.3794 C   0  0  0  0  0  0  0  0  0  0  0  0
   -1.2954    1.9431   -1.2816 C   0  0  0  0  0  3  0  0  0  0  0  0
   -1.8092    2.5339   -2.0697 H   0  0  0  0  0  0  0  0  0  0  0  0
   -2.6955    0.1340   -1.9558 C   0  0  0  0  0  0  0  0  0  0  0  0
   -2.3502   -0.7795   -2.4826 H   0  0  0  0  0  0  0  0  0  0  0  0
   -3.0556    0.8798   -2.6982 H   0  0  0  0  0  0  0  0  0  0  0  0
   -3.8319   -0.2207   -0.9838 C   0  0  0  0  0  0  0  0  0  0  0  0
   -4.1388    0.6955   -0.4312 H   0  0  0  0  0  0  0  0  0  0  0  0
   -4.7163   -0.5487   -1.5686 H   0  0  0  0  0  0  0  0  0  0  0  0
   -3.4854   -1.3439   -0.0093 C   0  0  0  0  0  0  0  0  0  0  0  0
   -4.3715   -1.5904    0.6190 H   0  0  0  0  0  0  0  0  0  0  0  0
   -3.1941   -2.2488   -0.5795 H   0  0  0  0  0  0  0  0  0  0  0  0
   -2.0008   -2.1739    1.7642 C   0  0  0  0  0  0  0  0  0  0  0  0
   -1.9244   -3.0688    1.1150 H   0  0  0  0  0  0  0  0  0  0  0  0
   -2.7912   -2.3387    2.5290 H   0  0  0  0  0  0  0  0  0  0  0  0
   -0.6425   -1.8903    2.3892 C   0  0  0  0  0  0  0  0  0  0  0  0
   -0.7135   -1.0157    3.0755 H   0  0  0  0  0  0  0  0  0  0  0  0
   -0.2763   -2.7610    2.9752 H   0  0  0  0  0  0  0  0  0  0  0  0
    1.5213   -1.8516    1.3171 C   0  0  0  0  0  3  0  0  0  0  0  0
    1.8893   -2.4917    2.1459 H   0  0  0  0  0  0  0  0  0  0  0  0
    2.4856   -1.4131    0.3548 C   0  0  0  0  0  0  0  0  0  0  0  0
    3.8203   -1.8990    0.4475 C   0  0  0  0  0  0  0  0  0  0  0  0
    4.0521   -2.6342    1.2356 H   0  0  0  0  0  0  0  0  0  0  0  0
    4.8144   -1.4690   -0.4206 C   0  0  0  0  0  0  0  0  0  0  0  0
    5.8393   -1.8581   -0.3382 H   0  0  0  0  0  0  0  0  0  0  0  0
    4.4843   -0.5125   -1.4142 C   0  0  0  0  0  0  0  0  0  0  0  0
    5.2634   -0.1577   -2.1075 H   0  0  0  0  0  0  0  0  0  0  0  0
    3.1941   -0.0133   -1.5336 C   0  0  0  0  0  0  0  0  0  0  0  0
    2.9314    0.7285   -2.3013 H   0  0  0  0  0  0  0  0  0  0  0  0
    2.1424   -0.4439   -0.6625 C   0  0  0  0  0  0  0  0  0  0  0  0
  2 45  1  0  0  0  0
  4  5  1  0  0  0  0
  4 28  1  0  0  0  0
  6 34  1  0  0  0  0
  6 31  1  0  0  0  0
  7  1  1  0  0  0  0
  7  8  1  0  0  0  0
  8  9  1  0  0  0  0
 10  8  2  0  0  0  0
 10 11  1  0  0  0  0
 12 10  1  0  0  0  0
 13 12  1  0  0  0  0
 14 16  1  0  0  0  0
 14 12  2  0  0  0  0
 15 14  1  0  0  0  0
 16  7  2  0  0  0  0
 17  3  1  0  0  0  0
 17 16  1  0  0  0  0
 18 17  1  0  0  0  0
 19  3  1  0  0  0  0
 19 22  1  0  0  0  0
 20 19  1  0  0  0  0
 21 19  1  0  0  0  0
 22 23  1  0  0  0  0
 22 25  1  0  0  0  0
 24 22  1  0  0  0  0
 25 26  1  0  0  0  0
 25  4  1  0  0  0  0
 27 25  1  0  0  0  0
 28 31  1  0  0  0  0
 28 30  1  0  0  0  0
 29 28  1  0  0  0  0
 31 33  1  0  0  0  0
 31 32  1  0  0  0  0
 34 35  1  0  0  0  0
 36 37  1  0  0  0  0
 36 34  1  0  0  0  0
 37 38  1  0  0  0  0
 39 40  1  0  0  0  0
 39 37  2  0  0  0  0
 41 39  1  0  0  0  0
 42 41  1  0  0  0  0
 43 41  2  0  0  0  0
 43 45  1  0  0  0  0
 44 43  1  0  0  0  0
 45 36  2  0  0  0  0
M  CHG  2   1  -1   2  -1
M  END
