1,2,5,6,7
q = -2.0, confidence = 0.832

 46 47  0  0  0  0  0  0  0  0999 V2000
   -2.3657   -1.3055    0.4825 O   0  5  0  0  0  0  0  0  0  0  0  0
    0.5142   -1.0016   -1.1118 O   0  5  0  0  0  0  0  0  0  0  0  0
    6.4611    0.5169    0.2098 O   0  0  0  0  0  0  0  0  0  0  0  0
    6.6448   -1.6582    0.0582 O   0  0  0  0  0  0  0  0  0  0  0  0
   -2.0639    1.3078   -0.7259 N   0  0  0  0  0  2  0  0  0  0  0  0
    0.5478    1.7876    0.2433 N   0  0  0  0  0  0  0  0  0  0  0  0
   -0.1534   -0.3084    2.0281 N   0  0  0  0  0  0  0  0  0  0  0  0
    5.9900   -0.6106    0.0107 N   0  0  0  0  0  0  0  0  0  0  0  0
   -3.6187   -1.1255    0.2109 C   0  0  0  0  0  0  0  0  0  0  0  0
   -4.5638   -2.1456    0.5670 C   0  0  0  0  0  0  0  0  0  0  0  0
   -5.9221   -2.0142    0.3150 C   0  0  0  0  0  0  0  0  0  0  0  0
   -6.4443   -0.8508   -0.3072 C   0  0  0  0  0  0  0  0  0  0  0  0
   -5.5675    0.1628   -0.6622 C   0  0  0  0  0  0  0  0  0  0  0  0
   -4.1627    0.0668   -0.4283 C   0  0  0  0  0  0  0  0  0  0  0  0
   -3.3638    1.1928   -0.8157 C   0  0  0  0  0  3  0  0  0  0  0  0
   -1.3992    2.5342   -1.1138 C   0  0  0  0  0  0  0  0  0  0  0  0
   -0.3637    2.9037   -0.0404 C   0  0  0  0  0  0  0  0  0  0  0  0
    1.6046    1.6458   -0.7882 C   0  0  0  0  0  0  0  0  0  0  0  0
    2.4250    0.3918   -0.6460 C   0  0  0  0  0  0  0  0  0  0  0  0
    3.7929    0.4605   -0.3680 C   0  0  0  0  0  0  0  0  0  0  0  0
    4.5648   -0.7102   -0.2959 C   0  0  0  0  0  0  0  0  0  0  0  0
    3.9804   -1.9721   -0.5174 C   0  0  0  0  0  0  0  0  0  0  0  0
    2.6207   -2.0550   -0.7950 C   0  0  0  0  0  0  0  0  0  0  0  0
    1.7891   -0.8901   -0.8562 C   0  0  0  0  0  0  0  0  0  0  0  0
    1.0562    1.7790    1.6198 C   0  0  0  0  0  0  0  0  0  0  0  0
    0.1022    1.0363    2.5624 C   0  0  0  0  0  0  0  0  0  0  0  0
    0.6830   -0.9063    2.0909 H   0  0  0  0  0  0  0  0  0  0  0  0
   -0.9239   -0.7955    2.5043 H   0  0  0  0  0  0  0  0  0  0  0  0
   -4.1538   -3.0468    1.0465 H   0  0  0  0  0  0  0  0  0  0  0  0
   -6.6058   -2.8291    0.6022 H   0  0  0  0  0  0  0  0  0  0  0  0
   -7.5220   -0.7565   -0.5022 H   0  0  0  0  0  0  0  0  0  0  0  0
   -5.9492    1.0785   -1.1443 H   0  0  0  0  0  0  0  0  0  0  0  0
   -3.9316    2.0570   -1.2323 H   0  0  0  0  0  0  0  0  0  0  0  0
   -0.8879    2.3833   -2.0916 H   0  0  0  0  0  0  0  0  0  0  0  0
   -2.1139    3.3773   -1.2505 H   0  0  0  0  0  0  0  0  0  0  0  0
   -0.9099    3.1501    0.8933 H   0  0  0  0  0  0  0  0  0  0  0  0
    0.1974    3.8204   -0.3460 H   0  0  0  0  0  0  0  0  0  0  0  0
    1.0872    1.6222   -1.7705 H   0  0  0  0  0  0  0  0  0  0  0  0
    2.2723    2.5411   -0.7860 H   0  0  0  0  0  0  0  0  0  0  0  0
    4.2980    1.4249   -0.2102 H   0  0  0  0  0  0  0  0  0  0  0  0
    4.6204   -2.8632   -0.4601 H   0  0  0  0  0  0  0  0  0  0  0  0
    2.1351   -3.0255   -0.9753 H   0  0  0  0  0  0  0  0  0  0  0  0
    2.0301    1.2476    1.6138 H   0  0  0  0  0  0  0  0  0  0  0  0
    1.2540    2.8066    2.0054 H   0  0  0  0  0  0  0  0  0  0  0  0
   -0.8746    1.5623    2.6196 H   0  0  0  0  0  0  0  0  0  0  0  0
    0.5290    1.0300    3.5900 H   0  0  0  0  0  0  0  0  0  0  0  0
  2 24  1  0  0  0  0
  6 25  1  0  0  0  0
  7 27  1  0  0  0  0
  7 28  1  0  0  0  0
  7 26  1  0  0  0  0
  8  4  2  0  0  0  0
  8  3  2  0  0  0  0
  9  1  1  0  0  0  0
  9 10  1  0  0  0  0
 10 29  1  0  0  0  0
 11 10  2  0  0  0  0
 11 30  1  0  0  0  0
 12 11  1  0  0  0  0
 13 14  1  0  0  0  0
 13 12  2  0  0  0  0
 14  9  2  0  0  0  0
 15  5  1  0  0  0  0
 15 14  1  0  0  0  0
 16  5  1  0  0  0  0
 16 17  1  0  0  0  0
 17  6  1  0  0  0  0
 17 36  1  0  0  0  0
 18 39  1  0  0  0  0
 18 19  1  0  0  0  0
 18  6  1  0  0  0  0
 19 20  1  0  0  0  0
 20 21  2  0  0  0  0
 20 40  1  0  0  0  0
 21  8  1  0  0  0  0
 22 41  1  0  0  0  0
 22 21  1  0  0  0  0
 23 22  2  0  0  0  0
 24 23  1  0  0  0  0
 24 19  2  0  0  0  0
 25 44  1  0  0  0  0
 25 26  1  0  0  0  0
 26 45  1  0  0  0  0
 26 46  1  0  0  0  0
 31 12  1  0  0  0  0
 32 13  1  0  0  0  0
 33 15  1  0  0  0  0
 34 16  1  0  0  0  0
 35 16  1  0  0  0  0
 37 17  1  0  0  0  0
 38 18  1  0  0  0  0
 42 23  1  0  0  0  0
 43 25  1  0  0  0  0
M  CHG  2   1  -1   2  -1
M  END
