1,2,3,4,5
q = -2.0, confidence = 0.844

 63 66  0  0  1  0  0  0  0  0999 V2000
   -0.7052    0.0104   -1.1893 N   0  0  0  0  0  0  0  0  0  0  0  0
   -2.3856    1.3497    0.2983 N   0  0  0  0  0  2  0  0  0  0  0  0
   -2.4087   -1.3334    0.2698 N   0  0  0  0  0  2  0  0  0  0  0  0
    0.1551    1.3813    1.1968 O   0  5  0  0  0  0  0  0  0  0  0  0
    0.1264   -1.4361    1.1614 O   0  5  0  0  0  0  0  0  0  0  0  0
   -2.8430    2.3531    1.0670 C   0  0  0  0  0  3  0  0  0  0  0  0
   -2.4614    2.4001    2.0973 H   0  0  0  0  0  0  0  0  0  0  0  0
   -3.7586    3.2861    0.5638 C   0  0  0  0  0  0  0  0  0  0  0  0
   -4.1234    4.0944    1.2129 H   0  0  0  0  0  0  0  0  0  0  0  0
   -4.1897    3.1728   -0.7670 C   0  0  0  0  0  0  0  0  0  0  0  0
   -4.9037    3.8977   -1.1846 H   0  0  0  0  0  0  0  0  0  0  0  0
   -3.6916    2.1307   -1.5671 C   0  0  0  0  0  0  0  0  0  0  0  0
   -3.9932    2.0203   -2.6184 H   0  0  0  0  0  0  0  0  0  0  0  0
   -2.7830    1.2381   -0.9942 C   0  0  0  0  0  0  0  0  0  0  0  0
   -2.1493    0.0260   -1.6516 C   0  0  2  0  0  0  0  0  0  0  0  0
   -2.2438    0.0390   -2.7567 H   0  0  0  0  0  0  0  0  0  0  0  0
   -2.8017   -1.1899   -1.0209 C   0  0  2  0  0  3  0  0  0  0  0  0
   -3.7212   -2.0578   -1.6138 C   0  0  0  0  0  0  0  0  0  0  0  0
   -4.0186   -1.9220   -2.6633 H   0  0  0  0  0  0  0  0  0  0  0  0
   -4.2363   -3.1084   -0.8359 C   0  0  0  0  0  0  0  0  0  0  0  0
   -4.9596   -3.8145   -1.2695 H   0  0  0  0  0  0  0  0  0  0  0  0
   -3.8106   -3.2543    0.4934 C   0  0  0  0  0  0  0  0  0  0  0  0
   -4.1889   -4.0698    1.1256 H   0  0  0  0  0  0  0  0  0  0  0  0
   -2.8826   -2.3452    1.0172 C   0  0  0  0  0  0  0  0  0  0  0  0
   -2.5046   -2.4185    2.0473 H   0  0  0  0  0  0  0  0  0  0  0  0
    0.0307    1.2530   -1.6194 C   0  0  0  0  0  0  0  0  0  0  0  0
    0.2102    1.1795   -2.7129 H   0  0  0  0  0  0  0  0  0  0  0  0
   -0.6606    2.1032   -1.4487 H   0  0  0  0  0  0  0  0  0  0  0  0
    1.3239    1.4904   -0.8920 C   0  0  0  0  0  0  0  0  0  0  0  0
    1.2994    1.5568    0.5259 C   0  0  0  0  0  0  0  0  0  0  0  0
    2.4734    1.9179    2.7361 C   0  0  0  0  0  0  0  0  0  0  0  0
    2.0210    1.0076    3.1821 H   0  0  0  0  0  0  0  0  0  0  0  0
    3.4905    2.0341    3.1549 H   0  0  0  0  0  0  0  0  0  0  0  0
    1.8611    2.7773    3.0818 H   0  0  0  0  0  0  0  0  0  0  0  0
    2.5037    1.8303    1.2360 C   0  0  0  0  0  0  0  0  0  0  0  0
    3.6803    2.0317    0.5017 C   0  0  0  0  0  0  0  0  0  0  0  0
    4.6102    2.2422    1.0550 H   0  0  0  0  0  0  0  0  0  0  0  0
    5.0250    2.1539   -1.6470 C   0  0  0  0  0  0  0  0  0  0  0  0
    5.8370    1.5346   -1.2133 H   0  0  0  0  0  0  0  0  0  0  0  0
    4.9310    1.8919   -2.7184 H   0  0  0  0  0  0  0  0  0  0  0  0
    5.3662    3.2094   -1.5898 H   0  0  0  0  0  0  0  0  0  0  0  0
    3.7273    1.9546   -0.9072 C   0  0  0  0  0  0  0  0  0  0  0  0
    2.5275    1.6833   -1.5860 C   0  0  0  0  0  0  0  0  0  0  0  0
    2.5333    1.6047   -2.6855 H   0  0  0  0  0  0  0  0  0  0  0  0
    0.0150   -1.2331   -1.6432 C   0  0  0  0  0  0  0  0  0  0  0  0
   -0.6843   -2.0787   -1.4833 H   0  0  0  0  0  0  0  0  0  0  0  0
    0.1928   -1.1432   -2.7357 H   0  0  0  0  0  0  0  0  0  0  0  0
    1.3070   -1.4919   -0.9210 C   0  0  0  0  0  0  0  0  0  0  0  0
    1.2764   -1.5944    0.4956 C   0  0  0  0  0  0  0  0  0  0  0  0
    2.4364   -2.0357    2.6987 C   0  0  0  0  0  0  0  0  0  0  0  0
    1.9466   -1.1602    3.1734 H   0  0  0  0  0  0  0  0  0  0  0  0
    1.8533   -2.9289    3.0077 H   0  0  0  0  0  0  0  0  0  0  0  0
    3.4536   -2.1309    3.1224 H   0  0  0  0  0  0  0  0  0  0  0  0
    2.4750   -1.8926    1.2029 C   0  0  0  0  0  0  0  0  0  0  0  0
    3.6557   -2.0745    0.4678 C   0  0  0  0  0  0  0  0  0  0  0  0
    4.5820   -2.3064    1.0184 H   0  0  0  0  0  0  0  0  0  0  0  0
    5.0162   -2.0732   -1.6779 C   0  0  0  0  0  0  0  0  0  0  0  0
    4.8652   -2.3807   -2.7312 H   0  0  0  0  0  0  0  0  0  0  0  0
    5.5505   -1.0982   -1.6950 H   0  0  0  0  0  0  0  0  0  0  0  0
    5.6951   -2.8059   -1.1992 H   0  0  0  0  0  0  0  0  0  0  0  0
    3.7099   -1.9549   -0.9369 C   0  0  0  0  0  0  0  0  0  0  0  0
    2.5114   -1.6693   -1.6147 C   0  0  0  0  0  0  0  0  0  0  0  0
    2.5213   -1.5661   -2.7122 H   0  0  0  0  0  0  0  0  0  0  0  0
  2  6  1  0  0  0  0
  3 24  1  0  0  0  0
  6  7  1  0  0  0  0
  8  6  1  0  0  0  0
  8  9  1  0  0  0  0
 10  8  2  0  0  0  0
 11 10  1  0  0  0  0
 12 14  2  0  0  0  0
 12 10  1  0  0  0  0
 13 12  1  0  0  0  0
 14  2  1  0  0  0  0
 15 16  1  6  0  0  0
 15  1  1  0  0  0  0
 15 14  1  0  0  0  0
 17 15  1  1  0  0  0
 17  3  1  0  0  0  0
 18 17  1  0  0  0  0
 18 20  2  0  0  0  0
 19 18  1  0  0  0  0
 20 22  1  0  0  0  0
 21 20  1  0  0  0  0
 22 24  2  0  0  0  0
 22 23  1  0  0  0  0
 24 25  1  0  0  0  0
 26 28  1  0  0  0  0
 26  1  1  0  0  0  0
 26 29  1  0  0  0  0
 27 26  1  0  0  0  0
 29 30  1  0  0  0  0
 30  4  1  0  0  0  0
 30 35  2  0  0  0  0
 31 34  1  0  0  0  0
 31 33  1  0  0  0  0
 31 32  1  0  0  0  0
 35 31  1  0  0  0  0
 36 37  1  0  0  0  0
 36 35  1  0  0  0  0
 38 41  1  0  0  0  0
 38 39  1  0  0  0  0
 38 42  1  0  0  0  0
 40 38  1  0  0  0  0
 42 36  2  0  0  0  0
 43 42  1  0  0  0  0
 43 29  2  0  0  0  0
 44 43  1  0  0  0  0
 45 46  1  0  0  0  0
 45  1  1  0  0  0  0
 45 48  1  0  0  0  0
 47 45  1  0  0  0  0
 48 49  1  0  0  0  0
 49  5  1  0  0  0  0
 49 54  2  0  0  0  0
 50 52  1  0  0  0  0
 50 53  1  0  0  0  0
 50 51  1  0  0  0  0
 54 50  1  0  0  0  0
 55 56  1  0  0  0  0
 55 54  1  0  0  0  0
 57 60  1  0  0  0  0
 57 61  1  0  0  0  0
 58 57  1  0  0  0  0
 59 57  1  0  0  0  0
 61 55  2  0  0  0  0
 62 61  1  0  0  0  0
 62 48  2  0  0  0  0
 63 62  1  0  0  0  0
M  CHG  2   4  -1   5  -1
M  END
