1,7,13,24,34
q = -2.0, confidence = 0.834

 47 48  0  0  1  0  0  0  0  0999 V2000
    0.3927   -0.0379   -0.9727 N   0  0  0  0  0  0  0  0  0  0  0  0
    0.9847   -1.3454   -1.3505 C   0  0  0  0  0  0  0  0  0  0  0  0
    1.6291   -1.7038   -0.5246 H   0  0  0  0  0  0  0  0  0  0  0  0
    1.6190   -1.2577   -2.2558 H   0  0  0  0  0  0  0  0  0  0  0  0
   -0.0759   -2.4683   -1.5672 C   0  0  0  0  0  0  0  0  0  0  0  0
    0.2836   -3.4824   -2.1687 O   0  5  0  0  0  0  0  0  0  0  0  0
   -1.2210   -2.2418   -1.0123 O   0  0  0  0  0  0  0  0  0  0  0  0
    0.1330    0.8395   -2.1361 C   0  0  0  0  0  0  0  0  0  0  0  0
    0.8558    0.6498   -2.9558 H   0  0  0  0  0  0  0  0  0  0  0  0
    0.2494    1.8987   -1.8281 H   0  0  0  0  0  0  0  0  0  0  0  0
   -1.3277    0.7095   -2.6807 C   0  0  0  0  0  0  0  0  0  0  0  0
   -1.5673    1.1954   -3.7875 O   0  5  0  0  0  0  0  0  0  0  0  0
   -2.1611    0.1499   -1.8656 O   0  0  0  0  0  0  0  0  0  0  0  0
    1.0029    0.6643    0.2514 C   0  0  2  0  0  0  0  0  0  0  0  0
    0.8634   -0.3624    1.3701 C   0  0  1  0  0  3  0  0  0  0  0  0
    1.7712   -0.6236    2.4002 C   0  0  0  0  0  0  0  0  0  0  0  0
    2.7208   -0.0714    2.4501 H   0  0  0  0  0  0  0  0  0  0  0  0
    1.4561   -1.6045    3.3575 C   0  0  0  0  0  0  0  0  0  0  0  0
    2.1598   -1.8372    4.1705 H   0  0  0  0  0  0  0  0  0  0  0  0
    0.2268   -2.2860    3.2446 C   0  0  0  0  0  0  0  0  0  0  0  0
   -0.0584   -3.0610    3.9719 H   0  0  0  0  0  0  0  0  0  0  0  0
   -0.6483   -1.9735    2.2048 C   0  0  0  0  0  0  0  0  0  0  0  0
   -1.6464   -2.4201    2.0713 H   0  0  0  0  0  0  0  0  0  0  0  0
   -0.3413   -1.0183    1.2865 N   0  0  0  0  0  2  0  0  0  0  0  0
   -0.0235    1.7416    0.6062 C   0  0  2  0  0  3  0  0  0  0  0  0
    0.2343    3.0452    1.0416 C   0  0  0  0  0  0  0  0  0  0  0  0
    1.2692    3.3990    1.1482 H   0  0  0  0  0  0  0  0  0  0  0  0
   -0.8475    3.8978    1.3256 C   0  0  0  0  0  0  0  0  0  0  0  0
   -0.6698    4.9312    1.6586 H   0  0  0  0  0  0  0  0  0  0  0  0
   -2.1574    3.4040    1.1613 C   0  0  0  0  0  0  0  0  0  0  0  0
   -3.0316    4.0386    1.3705 H   0  0  0  0  0  0  0  0  0  0  0  0
   -2.3551    2.0929    0.7296 C   0  0  0  0  0  0  0  0  0  0  0  0
   -3.3397    1.6132    0.6126 H   0  0  0  0  0  0  0  0  0  0  0  0
   -1.3036    1.2723    0.4641 N   0  0  0  0  0  2  0  0  0  0  0  0
    2.4080    1.2503    0.0546 C   0  0  0  0  0  0  0  0  0  0  0  0
    2.3204    2.0932   -0.6637 H   0  0  0  0  0  0  0  0  0  0  0  0
    2.7132    1.7157    1.0177 H   0  0  0  0  0  0  0  0  0  0  0  0
    3.5234    0.3117   -0.4137 C   0  0  0  0  0  0  0  0  0  0  0  0
    3.3182   -0.0300   -1.4488 H   0  0  0  0  0  0  0  0  0  0  0  0
    3.5404   -0.6090    0.2079 H   0  0  0  0  0  0  0  0  0  0  0  0
    4.9023    0.9783   -0.3695 C   0  0  0  0  0  0  0  0  0  0  0  0
    4.8756    1.9139   -0.9722 H   0  0  0  0  0  0  0  0  0  0  0  0
    5.1177    1.3039    0.6736 H   0  0  0  0  0  0  0  0  0  0  0  0
    6.0280    0.0730   -0.8708 C   0  0  0  0  0  0  0  0  0  0  0  0
    7.0157    0.5758   -0.8251 H   0  0  0  0  0  0  0  0  0  0  0  0
    5.8558   -0.2354   -1.9231 H   0  0  0  0  0  0  0  0  0  0  0  0
    6.0947   -0.8559   -0.2665 H   0  0  0  0  0  0  0  0  0  0  0  0
  2  1  1  0  0  0  0
  2  3  1  0  0  0  0
  4  2  1  0  0  0  0
  5  2  1  0  0  0  0
  5  7  2  0  0  0  0
  6  5  1  0  0  0  0
  8 10  1  0  0  0  0
  8  1  1  0  0  0  0
  9  8  1  0  0  0  0
 11  8  1  0  0  0  0
 11 13  2  0  0  0  0
 12 11  1  0  0  0  0
 14  1  1  6  0  0  0
 15 14  1  1  0  0  0
 15 16  1  0  0  0  0
 16 17  1  0  0  0  0
 16 18  2  0  0  0  0
 18 19  1  0  0  0  0
 20 18  1  0  0  0  0
 20 21  1  0  0  0  0
 22 20  2  0  0  0  0
 23 22  1  0  0  0  0
 24 15  1  0  0  0  0
 24 22  1  0  0  0  0
 25 14  1  1  0  0  0
 25 26  1  0  0  0  0
 26 27  1  0  0  0  0
 26 28  2  0  0  0  0
 28 29  1  0  0  0  0
 30 28  1  0  0  0  0
 30 31  1  0  0  0  0
 32 30  2  0  0  0  0
 33 32  1  0  0  0  0
 34 25  1  0  0  0  0
 34 32  1  0  0  0  0
 35 14  1  0  0  0  0
 35 37  1  0  0  0  0
 36 35  1  0  0  0  0
 38 41  1  0  0  0  0
 38 35  1  0  0  0  0
 38 40  1  0  0  0  0
 39 38  1  0  0  0  0
 41 43  1  0  0  0  0
 42 41  1  0  0  0  0
 44 45  1  0  0  0  0
 44 41  1  0  0  0  0
 44 47  1  0  0  0  0
 46 44  1  0  0  0  0
M  CHG  2   6  -1  12  -1
M  END
