1,2,7,8,9
q = -1.0

 51 52  0  0  1  0  0  0  0  0999 V2000
    0.3136   -0.1671    1.4333 O   0  5  0  0  0  0  0  0  0  0  0  0
   -0.4570    0.1818   -1.1063 O   0  5  0  0  0  0  0  0  0  0  0  0
    3.9041   -1.6483    0.1722 O   0  0  0  0  0  0  0  0  0  0  0  0
    1.9795    3.4108   -0.5463 O   0  0  0  0  0  0  0  0  0  0  0  0
    3.0079   -3.1369   -1.2099 O   0  0  0  0  0  0  0  0  0  0  0  0
    0.4758    4.5590    0.6326 O   0  0  0  0  0  0  0  0  0  0  0  0
   -3.1033   -0.9079   -0.5217 N   0  0  0  0  0  2  0  0  0  0  0  0
   -0.9396   -2.3037   -0.1746 N   0  0  0  0  0  2  0  0  0  0  0  0
   -2.3225    1.3764    0.3282 N   0  0  0  0  0  2  0  0  0  0  0  0
   -3.0616   -2.0998   -1.3458 C   0  0  0  0  0  0  0  0  0  0  0  0
   -2.0700   -3.0824   -0.7121 C   0  0  0  0  0  0  0  0  0  0  0  0
    0.3196   -2.7348   -0.2183 C   0  0  2  0  0  3  0  0  0  0  0  0
    0.5517   -4.1618   -0.6684 C   0  0  0  0  0  0  0  0  0  0  0  0
    1.4533   -1.9235    0.1851 C   0  0  1  0  0  3  0  0  0  0  0  0
    2.7621   -2.3164   -0.3448 C   0  0  0  0  0  0  0  0  0  0  0  0
    3.8251   -0.6401    1.0675 C   0  0  2  0  0  3  0  0  0  0  0  0
    2.6224   -0.1832    1.5126 C   0  0  0  0  0  0  0  0  0  0  0  0
    1.3792   -0.7534    1.0377 C   0  0  0  0  0  0  0  0  0  0  0  0
    5.1662   -0.1085    1.4530 C   0  0  0  0  0  0  0  0  0  0  0  0
   -3.9813    0.1791   -0.9116 C   0  0  0  0  0  0  0  0  0  0  0  0
   -3.7749    1.2954    0.1230 C   0  0  0  0  0  0  0  0  0  0  0  0
   -1.6275    2.4885    0.1267 C   0  0  2  0  0  3  0  0  0  0  0  0
   -2.3344    3.8222    0.1139 C   0  0  0  0  0  0  0  0  0  0  0  0
   -0.2266    2.4074   -0.2171 C   0  0  0  0  0  0  0  0  0  0  0  0
    0.6692    3.5334    0.0076 C   0  0  0  0  0  0  0  0  0  0  0  0
    2.3648    2.3704   -1.3140 C   0  0  0  0  0  0  0  0  0  0  0  0
    1.5281    1.3255   -1.5838 C   0  0  0  0  0  0  0  0  0  0  0  0
    0.2288    1.2563   -0.9598 C   0  0  0  0  0  0  0  0  0  0  0  0
    3.7818    2.4889   -1.7699 C   0  0  0  0  0  0  0  0  0  0  0  0
   -4.0659   -2.5772   -1.4339 H   0  0  0  0  0  0  0  0  0  0  0  0
   -2.7330   -1.8437   -2.3842 H   0  0  0  0  0  0  0  0  0  0  0  0
   -1.7503   -3.8294   -1.4636 H   0  0  0  0  0  0  0  0  0  0  0  0
   -2.5598   -3.6249    0.1269 H   0  0  0  0  0  0  0  0  0  0  0  0
   -0.2614   -4.8125   -0.2948 H   0  0  0  0  0  0  0  0  0  0  0  0
    0.5785   -4.2304   -1.7755 H   0  0  0  0  0  0  0  0  0  0  0  0
    1.5215   -4.5466   -0.3184 H   0  0  0  0  0  0  0  0  0  0  0  0
    2.5557    0.6602    2.2111 H   0  0  0  0  0  0  0  0  0  0  0  0
    5.7908   -0.9180    1.8842 H   0  0  0  0  0  0  0  0  0  0  0  0
    5.7026    0.2643    0.5555 H   0  0  0  0  0  0  0  0  0  0  0  0
    5.0738    0.7108    2.1883 H   0  0  0  0  0  0  0  0  0  0  0  0
   -3.7358    0.5528   -1.9381 H   0  0  0  0  0  0  0  0  0  0  0  0
   -5.0485   -0.1452   -0.9268 H   0  0  0  0  0  0  0  0  0  0  0  0
   -4.2579    1.0066    1.0809 H   0  0  0  0  0  0  0  0  0  0  0  0
   -4.2171    2.2489   -0.2248 H   0  0  0  0  0  0  0  0  0  0  0  0
   -3.1638    3.8502    0.8451 H   0  0  0  0  0  0  0  0  0  0  0  0
   -1.6118    4.6206    0.3540 H   0  0  0  0  0  0  0  0  0  0  0  0
   -2.7531    4.0230   -0.8959 H   0  0  0  0  0  0  0  0  0  0  0  0
    1.8630    0.4715   -2.1858 H   0  0  0  0  0  0  0  0  0  0  0  0
    4.4584    2.5154   -0.8900 H   0  0  0  0  0  0  0  0  0  0  0  0
    4.0649    1.6397   -2.4173 H   0  0  0  0  0  0  0  0  0  0  0  0
    3.9340    3.4405   -2.3193 H   0  0  0  0  0  0  0  0  0  0  0  0
  2 28  1  0  0  0  0
  3 16  1  0  0  0  0
  4 25  1  0  0  0  0
  5 15  2  0  0  0  0
 10 11  1  0  0  0  0
 10  7  1  0  0  0  0
 11  8  1  0  0  0  0
 11 33  1  0  0  0  0
 12  8  1  1  0  0  0
 13 36  1  0  0  0  0
 13 34  1  0  0  0  0
 13 12  1  0  0  0  0
 14 12  1  6  0  0  0
 14 18  1  0  0  0  0
 15  3  1  0  0  0  0
 15 14  1  0  0  0  0
 16 19  1  6  0  0  0
 16 17  1  0  0  0  0
 17 37  1  0  0  0  0
 18  1  1  0  0  0  0
 18 17  2  0  0  0  0
 19 38  1  0  0  0  0
 19 40  1  0  0  0  0
 20  7  1  0  0  0  0
 20 21  1  0  0  0  0
 21  9  1  0  0  0  0
 21 43  1  0  0  0  0
 22  9  1  6  0  0  0
 23 22  1  0  0  0  0
 23 46  1  0  0  0  0
 23 45  1  0  0  0  0
 24 25  1  0  0  0  0
 24 22  1  0  0  0  0
 25  6  2  0  0  0  0
 26  4  1  0  0  0  0
 27 26  2  0  0  0  0
 27 28  1  0  0  0  0
 28 24  2  0  0  0  0
 29 26  1  0  0  0  0
 29 49  1  0  0  0  0
 30 10  1  0  0  0  0
 31 10  1  0  0  0  0
 32 11  1  0  0  0  0
 35 13  1  0  0  0  0
 39 19  1  0  0  0  0
 41 20  1  0  0  0  0
 42 20  1  0  0  0  0
 44 21  1  0  0  0  0
 47 23  1  0  0  0  0
 48 27  1  0  0  0  0
 50 29  1  0  0  0  0
 51 29  1  0  0  0  0
M  CHG  2   1  -1   2  -1
M  END
