1,6,7,8,10
q = -1.0

 32 33  0  0  1  0  0  0  0  0999 V2000
   -1.2642    2.0119    0.9069 O   0  5  0  0  0  0  0  0  0  0  0  0
   -3.3302    2.8255    0.5003 O   0  0  0  0  0  0  0  0  0  0  0  0
   -0.2101   -3.3471   -0.7006 O   0  0  0  0  0  0  0  0  0  0  0  0
    3.8943   -1.3005    1.4328 O   0  0  0  0  0  0  0  0  0  0  0  0
    2.4438    0.3459    1.7293 O   0  0  0  0  0  0  0  0  0  0  0  0
    1.1160    0.6813    2.0225 O   0  0  0  0  0  1  0  0  0  0  0  0
   -1.8236   -0.3095    0.0353 N   0  0  0  0  0  2  0  0  0  0  0  0
    0.4113   -1.4104    0.4213 N   0  0  0  0  0  2  0  0  0  0  0  0
    2.5566    2.3855   -1.9289 N   0  0  0  0  0  0  0  0  0  0  0  0
    1.0948    1.0117   -1.0111 N   0  0  0  0  0  2  0  0  0  0  0  0
   -2.5105    1.9149    0.5043 C   0  0  0  0  0  0  0  0  0  0  0  0
   -2.8741    0.5127    0.0119 C   0  0  2  0  0  3  0  0  0  0  0  0
   -4.1081    0.0206   -0.4323 C   0  0  0  0  0  0  0  0  0  0  0  0
   -4.1784   -1.3298   -0.8273 C   0  0  0  0  0  0  0  0  0  0  0  0
   -3.0401   -2.1587   -0.7753 C   0  0  0  0  0  0  0  0  0  0  0  0
   -1.8412   -1.5994   -0.3150 C   0  0  0  0  0  0  0  0  0  0  0  0
   -0.4751   -2.2417   -0.2204 C   0  0  0  0  0  0  0  0  0  0  0  0
    1.8225   -1.6190    0.2640 C   0  0  2  0  0  0  0  0  0  0  0  0
    2.7641   -0.9072    1.2509 C   0  0  0  0  0  0  0  0  0  0  0  0
    2.2950   -1.2092   -1.1705 C   0  0  0  0  0  0  0  0  0  0  0  0
    2.1915    0.2676   -1.4177 C   0  0  0  0  0  0  0  0  0  0  0  0
    3.1174    1.1230   -1.9964 C   0  0  0  0  0  0  0  0  0  0  0  0
    1.3436    2.2782   -1.3191 C   0  0  0  0  0  3  0  0  0  0  0  0
   -4.9750    0.6969   -0.4572 H   0  0  0  0  0  0  0  0  0  0  0  0
   -5.1348   -1.7445   -1.1805 H   0  0  0  0  0  0  0  0  0  0  0  0
   -3.0583   -3.2146   -1.0812 H   0  0  0  0  0  0  0  0  0  0  0  0
    2.0456   -2.6977    0.3974 H   0  0  0  0  0  0  0  0  0  0  0  0
    3.3429   -1.5368   -1.3122 H   0  0  0  0  0  0  0  0  0  0  0  0
    1.6677   -1.7895   -1.8803 H   0  0  0  0  0  0  0  0  0  0  0  0
    4.1066    0.9424   -2.4276 H   0  0  0  0  0  0  0  0  0  0  0  0
    2.9880    3.2501   -2.2577 H   0  0  0  0  0  0  0  0  0  0  0  0
    0.6878    3.1275   -1.0922 H   0  0  0  0  0  0  0  0  0  0  0  0
  2 11  2  0  0  0  0
  3 17  2  0  0  0  0
  5  6  1  0  0  0  0
  9 23  1  0  0  0  0
 11  1  1  0  0  0  0
 12  7  1  0  0  0  0
 12 11  1  1  0  0  0
 13 12  1  0  0  0  0
 14 15  1  0  0  0  0
 14 13  2  0  0  0  0
 15 16  2  0  0  0  0
 16 17  1  0  0  0  0
 16  7  1  0  0  0  0
 17  8  1  0  0  0  0
 18 27  1  1  0  0  0
 18  8  1  0  0  0  0
 18 19  1  0  0  0  0
 19  4  2  0  0  0  0
 19  5  1  0  0  0  0
 20 18  1  0  0  0  0
 21 20  1  0  0  0  0
 21 10  1  0  0  0  0
 22  9  1  0  0  0  0
 22 21  2  0  0  0  0
 23 32  1  0  0  0  0
 23 10  1  0  0  0  0
 24 13  1  0  0  0  0
 25 14  1  0  0  0  0
 26 15  1  0  0  0  0
 28 20  1  0  0  0  0
 29 20  1  0  0  0  0
 30 22  1  0  0  0  0
 31  9  1  0  0  0  0
M  CHG  1   1  -1
M  END
