1,2,5,6,7
q = -2.0, confidence = 0.812

 69 73  0  0  1  0  0  0  0  0999 V2000
   -1.2372    1.0642   -0.9481 O   0  5  0  0  0  0  0  0  0  0  0  0
   -3.5979    0.2509   -0.2250 O   0  5  0  0  0  0  0  0  0  0  0  0
    4.6657    0.4086    0.5415 O   0  0  0  0  0  0  0  0  0  0  0  0
   -0.3778    5.2407   -1.0953 O   0  0  0  0  0  0  0  0  0  0  0  0
   -1.3871    0.4654    1.5977 N   0  0  0  0  0  2  0  0  0  0  0  0
   -0.0965   -1.0325    0.0395 N   0  0  0  0  0  2  0  0  0  0  0  0
   -1.8734   -1.4743   -1.6737 N   0  0  0  0  0  2  0  0  0  0  0  0
    0.4867    3.1244   -1.2706 N   0  0  0  0  0  0  0  0  0  0  0  0
   -2.2137    1.2208    2.3385 C   0  0  0  0  0  3  0  0  0  0  0  0
   -1.7398    1.9629    3.4304 C   0  0  0  0  0  0  0  0  0  0  0  0
   -0.3733    1.9163    3.7425 C   0  0  0  0  0  0  0  0  0  0  0  0
    0.4840    1.1252    2.9661 C   0  0  0  0  0  0  0  0  0  0  0  0
   -0.0495    0.4006    1.8882 C   0  0  0  0  0  0  0  0  0  0  0  0
    0.7102   -0.4552    0.9631 C   0  0  2  0  0  3  0  0  0  0  0  0
    2.0921   -0.6791    0.9201 C   0  0  0  0  0  0  0  0  0  0  0  0
    2.6444   -1.4830   -0.1095 C   0  0  0  0  0  0  0  0  0  0  0  0
    1.7595   -2.0018   -1.0939 C   0  0  0  0  0  0  0  0  0  0  0  0
    0.3874   -1.7418   -1.0074 C   0  0  0  0  0  0  0  0  0  0  0  0
   -0.6726   -2.0476   -1.9883 C   0  0  2  0  0  3  0  0  0  0  0  0
   -0.5265   -2.7958   -3.1653 C   0  0  0  0  0  0  0  0  0  0  0  0
   -1.6295   -2.9362   -4.0204 C   0  0  0  0  0  0  0  0  0  0  0  0
   -2.8472   -2.3278   -3.6807 C   0  0  0  0  0  0  0  0  0  0  0  0
   -2.9320   -1.5988   -2.4862 C   0  0  0  0  0  0  0  0  0  0  0  0
    4.0876   -1.7799   -0.1942 C   0  0  0  0  0  0  0  0  0  0  0  0
    4.5067   -3.0523   -0.6467 C   0  0  0  0  0  0  0  0  0  0  0  0
    5.8583   -3.3883   -0.7655 C   0  0  0  0  0  0  0  0  0  0  0  0
    6.8292   -2.4296   -0.4400 C   0  0  0  0  0  0  0  0  0  0  0  0
    6.4533   -1.1545    0.0029 C   0  0  0  0  0  0  0  0  0  0  0  0
    5.0911   -0.8147    0.1364 C   0  0  0  0  0  0  0  0  0  0  0  0
    5.6331    1.4512    0.7565 C   0  0  0  0  0  0  0  0  0  0  0  0
    4.9363    2.7535    1.1177 C   0  0  0  0  0  0  0  0  0  0  0  0
    4.0875    3.4042    0.0141 C   0  0  0  0  0  0  0  0  0  0  0  0
    2.6697    2.8449   -0.1380 C   0  0  0  0  0  0  0  0  0  0  0  0
    1.8700    3.5414   -1.2457 C   0  0  0  0  0  0  0  0  0  0  0  0
   -0.5484    4.0189   -1.1362 C   0  0  0  0  0  0  0  0  0  0  0  0
   -1.9214    3.4117   -1.0060 C   0  0  0  0  0  0  0  0  0  0  0  0
   -2.1779    2.0270   -0.8472 C   0  0  0  0  0  0  0  0  0  0  0  0
   -3.4910    1.5656   -0.5275 C   0  0  0  0  0  0  0  0  0  0  0  0
   -4.5683    2.4645   -0.4985 C   0  0  0  0  0  0  0  0  0  0  0  0
   -4.3230    3.8324   -0.7325 C   0  0  0  0  0  0  0  0  0  0  0  0
   -3.0221    4.2961   -0.9606 C   0  0  0  0  0  0  0  0  0  0  0  0
    0.2400    2.1266   -1.2709 H   0  0  0  0  0  0  0  0  0  0  0  0
   -3.2674    1.2301    2.0235 H   0  0  0  0  0  0  0  0  0  0  0  0
   -2.4402    2.5792    4.0104 H   0  0  0  0  0  0  0  0  0  0  0  0
    0.0260    2.4989    4.5855 H   0  0  0  0  0  0  0  0  0  0  0  0
    1.5598    1.0747    3.1822 H   0  0  0  0  0  0  0  0  0  0  0  0
    2.7524   -0.2190    1.6631 H   0  0  0  0  0  0  0  0  0  0  0  0
    2.1632   -2.5479   -1.9568 H   0  0  0  0  0  0  0  0  0  0  0  0
    0.4403   -3.2564   -3.4112 H   0  0  0  0  0  0  0  0  0  0  0  0
   -1.5349   -3.5136   -4.9517 H   0  0  0  0  0  0  0  0  0  0  0  0
   -3.7277   -2.4082   -4.3334 H   0  0  0  0  0  0  0  0  0  0  0  0
   -3.8426   -1.0802   -2.1427 H   0  0  0  0  0  0  0  0  0  0  0  0
    3.7405   -3.8080   -0.8770 H   0  0  0  0  0  0  0  0  0  0  0  0
    6.1528   -4.3922   -1.1023 H   0  0  0  0  0  0  0  0  0  0  0  0
    7.8986   -2.6726   -0.5281 H   0  0  0  0  0  0  0  0  0  0  0  0
    7.2320   -0.4209    0.2452 H   0  0  0  0  0  0  0  0  0  0  0  0
    6.3236    1.1426    1.5732 H   0  0  0  0  0  0  0  0  0  0  0  0
    6.2365    1.5792   -0.1707 H   0  0  0  0  0  0  0  0  0  0  0  0
    4.3269    2.6021    2.0363 H   0  0  0  0  0  0  0  0  0  0  0  0
    5.7501    3.4496    1.4119 H   0  0  0  0  0  0  0  0  0  0  0  0
    4.0095    4.4920    0.2250 H   0  0  0  0  0  0  0  0  0  0  0  0
    4.6292    3.3299   -0.9558 H   0  0  0  0  0  0  0  0  0  0  0  0
    2.7130    1.7527   -0.3361 H   0  0  0  0  0  0  0  0  0  0  0  0
    2.1198    2.9669    0.8222 H   0  0  0  0  0  0  0  0  0  0  0  0
    2.3599    3.3567   -2.2305 H   0  0  0  0  0  0  0  0  0  0  0  0
    1.8574    4.6410   -1.0965 H   0  0  0  0  0  0  0  0  0  0  0  0
   -5.5782    2.0894   -0.2741 H   0  0  0  0  0  0  0  0  0  0  0  0
   -5.1617    4.5438   -0.7035 H   0  0  0  0  0  0  0  0  0  0  0  0
   -2.8000    5.3654   -1.0901 H   0  0  0  0  0  0  0  0  0  0  0  0
  1 37  1  0  0  0  0
  3 30  1  0  0  0  0
  5 13  1  0  0  0  0
  5  9  1  0  0  0  0
  6 14  1  0  0  0  0
  8 34  1  0  0  0  0
  8 35  1  0  0  0  0
  9 10  1  0  0  0  0
 10 11  2  0  0  0  0
 10 44  1  0  0  0  0
 11 45  1  0  0  0  0
 12 46  1  0  0  0  0
 12 11  1  0  0  0  0
 13 12  2  0  0  0  0
 14 13  1  6  0  0  0
 15 14  1  0  0  0  0
 15 47  1  0  0  0  0
 16 15  2  0  0  0  0
 17 18  2  0  0  0  0
 17 16  1  0  0  0  0
 18  6  1  0  0  0  0
 19  7  1  0  0  0  0
 19 18  1  6  0  0  0
 20 19  1  0  0  0  0
 21 22  1  0  0  0  0
 21 20  2  0  0  0  0
 22 23  2  0  0  0  0
 23 52  1  0  0  0  0
 23  7  1  0  0  0  0
 24 16  1  0  0  0  0
 24 29  1  0  0  0  0
 25 24  2  0  0  0  0
 26 25  1  0  0  0  0
 26 27  2  0  0  0  0
 27 28  1  0  0  0  0
 28 29  2  0  0  0  0
 28 56  1  0  0  0  0
 29  3  1  0  0  0  0
 30 31  1  0  0  0  0
 30 57  1  0  0  0  0
 31 60  1  0  0  0  0
 31 59  1  0  0  0  0
 32 61  1  0  0  0  0
 32 31  1  0  0  0  0
 33 32  1  0  0  0  0
 33 64  1  0  0  0  0
 34 66  1  0  0  0  0
 34 33  1  0  0  0  0
 35  4  2  0  0  0  0
 35 36  1  0  0  0  0
 36 41  2  0  0  0  0
 36 37  1  0  0  0  0
 37 38  2  0  0  0  0
 38 39  1  0  0  0  0
 38  2  1  0  0  0  0
 39 67  1  0  0  0  0
 40 68  1  0  0  0  0
 40 39  2  0  0  0  0
 41 40  1  0  0  0  0
 42  8  1  0  0  0  0
 43  9  1  0  0  0  0
 48 17  1  0  0  0  0
 49 20  1  0  0  0  0
 50 21  1  0  0  0  0
 51 22  1  0  0  0  0
 53 25  1  0  0  0  0
 54 26  1  0  0  0  0
 55 27  1  0  0  0  0
 58 30  1  0  0  0  0
 62 32  1  0  0  0  0
 63 33  1  0  0  0  0
 65 34  1  0  0  0  0
 69 41  1  0  0  0  0
M  CHG  2   1  -1   2  -1
M  END
