1,2,4,6
q = -2.0, confidence = 0.826

 37 37  0  0  0  0  0  0  0  0999 V2000
    1.6292    0.1035    0.6060 N   0  0  0  0  0  0  0  0  0  0  0  0
   -0.6521    1.8391   -0.4759 N   0  0  0  0  0  0  0  0  0  0  0  0
   -1.0311   -0.2667    1.2830 N   0  0  0  0  0  0  0  0  0  0  0  0
    0.2848   -1.9285   -0.4183 O   0  5  0  0  0  0  0  0  0  0  0  0
    1.9218   -3.4158    0.0168 O   0  0  0  0  0  0  0  0  0  0  0  0
   -1.7755   -0.3527   -1.2629 O   0  5  0  0  0  0  0  0  0  0  0  0
   -3.8522   -1.0792   -0.7766 O   0  0  0  0  0  0  0  0  0  0  0  0
    1.5131   -2.2696   -0.1045 C   0  0  0  0  0  0  0  0  0  0  0  0
    2.4260   -1.0479    0.0939 C   0  0  0  0  0  0  0  0  0  0  0  0
    3.2783   -1.2845    0.7653 H   0  0  0  0  0  0  0  0  0  0  0  0
    2.7993   -0.7657   -0.9107 H   0  0  0  0  0  0  0  0  0  0  0  0
    2.3487    1.3865    0.3868 C   0  0  0  0  0  0  0  0  0  0  0  0
    2.6924    1.3601   -0.6658 H   0  0  0  0  0  0  0  0  0  0  0  0
    3.2444    1.4125    1.0489 H   0  0  0  0  0  0  0  0  0  0  0  0
    1.5001    2.6422    0.5966 C   0  0  0  0  0  0  0  0  0  0  0  0
    2.1897    3.5100    0.5414 H   0  0  0  0  0  0  0  0  0  0  0  0
    1.0749    2.6851    1.6231 H   0  0  0  0  0  0  0  0  0  0  0  0
    0.4158    2.8611   -0.4588 C   0  0  0  0  0  0  0  0  0  0  0  0
   -0.0383    3.8691   -0.3313 H   0  0  0  0  0  0  0  0  0  0  0  0
    0.8818    2.8088   -1.4625 H   0  0  0  0  0  0  0  0  0  0  0  0
   -1.7577    1.9785    0.5038 C   0  0  0  0  0  0  0  0  0  0  0  0
   -2.6939    1.6743    0.0008 H   0  0  0  0  0  0  0  0  0  0  0  0
   -1.8808    3.0347    0.8277 H   0  0  0  0  0  0  0  0  0  0  0  0
   -1.4915    1.0860    1.7130 C   0  0  0  0  0  0  0  0  0  0  0  0
   -0.6980    1.5332    2.3403 H   0  0  0  0  0  0  0  0  0  0  0  0
   -2.3982    0.9965    2.3494 H   0  0  0  0  0  0  0  0  0  0  0  0
   -2.6911   -0.8570   -0.4676 C   0  0  0  0  0  0  0  0  0  0  0  0
   -2.1560   -1.1785    0.9478 C   0  0  0  0  0  0  0  0  0  0  0  0
   -2.9682   -1.1313    1.7022 H   0  0  0  0  0  0  0  0  0  0  0  0
   -1.7460   -2.2058    0.9012 H   0  0  0  0  0  0  0  0  0  0  0  0
   -0.0332   -0.8382    2.2221 C   0  0  0  0  0  0  0  0  0  0  0  0
    0.0806   -1.9072    1.9717 H   0  0  0  0  0  0  0  0  0  0  0  0
   -0.3872   -0.7707    3.2754 H   0  0  0  0  0  0  0  0  0  0  0  0
    1.2881   -0.0912    2.0521 C   0  0  0  0  0  0  0  0  0  0  0  0
    1.2264    0.9067    2.5263 H   0  0  0  0  0  0  0  0  0  0  0  0
    2.1077   -0.6354    2.5676 H   0  0  0  0  0  0  0  0  0  0  0  0
   -1.0520    1.8074   -1.4270 H   0  0  0  0  0  0  0  0  0  0  0  0
  1 34  1  0  0  0  0
  2 18  1  0  0  0  0
  2 21  1  0  0  0  0
  3 24  1  0  0  0  0
  3 31  1  0  0  0  0
  4  8  1  0  0  0  0
  6 27  1  0  0  0  0
  7 27  2  0  0  0  0
  8  5  2  0  0  0  0
  8  9  1  0  0  0  0
  9  1  1  0  0  0  0
  9 10  1  0  0  0  0
 11  9  1  0  0  0  0
 12 15  1  0  0  0  0
 12  1  1  0  0  0  0
 12 14  1  0  0  0  0
 13 12  1  0  0  0  0
 15 17  1  0  0  0  0
 16 15  1  0  0  0  0
 18 19  1  0  0  0  0
 18 15  1  0  0  0  0
 20 18  1  0  0  0  0
 21 23  1  0  0  0  0
 21 24  1  0  0  0  0
 22 21  1  0  0  0  0
 24 25  1  0  0  0  0
 24 26  1  0  0  0  0
 27 28  1  0  0  0  0
 28  3  1  0  0  0  0
 28 29  1  0  0  0  0
 30 28  1  0  0  0  0
 31 33  1  0  0  0  0
 32 31  1  0  0  0  0
 34 31  1  0  0  0  0
 34 35  1  0  0  0  0
 34 36  1  0  0  0  0
 37  2  1  0  0  0  0
M  CHG  2   4  -1   6  -1
M  END
