1,8,16,17,36
q = -2.0, confidence = 0.832

 54 57  0  0  0  0  0  0  0  0999 V2000
    1.8203    1.7921    0.7676 N   0  0  0  0  0  2  0  0  0  0  0  0
    2.0069    3.1765    1.1636 C   0  0  0  0  0  0  0  0  0  0  0  0
    3.0741    3.4097    1.3679 H   0  0  0  0  0  0  0  0  0  0  0  0
    1.4013    3.3551    2.0730 H   0  0  0  0  0  0  0  0  0  0  0  0
    1.4399    4.0664    0.0160 C   0  0  0  0  0  0  0  0  0  0  0  0
    0.8423    4.8929    0.4422 H   0  0  0  0  0  0  0  0  0  0  0  0
    2.2529    4.5093   -0.5960 H   0  0  0  0  0  0  0  0  0  0  0  0
    0.5521    3.2493   -0.8596 N   0  0  0  0  0  0  0  0  0  0  0  0
    1.0832    2.8874   -1.6677 H   0  0  0  0  0  0  0  0  0  0  0  0
   -0.7259    3.8397   -1.3090 C   0  0  0  0  0  0  0  0  0  0  0  0
   -0.5771    4.6603   -2.0447 H   0  0  0  0  0  0  0  0  0  0  0  0
   -1.2237    4.2375   -0.4030 H   0  0  0  0  0  0  0  0  0  0  0  0
   -1.5537    2.6956   -1.8949 C   0  0  0  0  0  0  0  0  0  0  0  0
   -2.5901    3.0285   -2.1222 H   0  0  0  0  0  0  0  0  0  0  0  0
   -1.0947    2.3566   -2.8536 H   0  0  0  0  0  0  0  0  0  0  0  0
   -1.5264    1.5898   -0.9444 N   0  0  0  0  0  2  0  0  0  0  0  0
    0.8964    0.5978   -1.4547 O   0  5  0  0  0  0  0  0  0  0  0  0
    1.8027   -0.3087   -1.2198 C   0  0  0  0  0  0  0  0  0  0  0  0
    1.9329   -1.3831   -2.1716 C   0  0  0  0  0  0  0  0  0  0  0  0
    1.2302   -1.3794   -3.0175 H   0  0  0  0  0  0  0  0  0  0  0  0
    2.8749   -2.3736   -2.0164 C   0  0  0  0  0  0  0  0  0  0  0  0
    2.9391   -3.1913   -2.7523 H   0  0  0  0  0  0  0  0  0  0  0  0
    3.7776   -2.3878   -0.9039 C   0  0  0  0  0  0  0  0  0  0  0  0
    4.7340   -3.4243   -0.7344 C   0  0  0  0  0  0  0  0  0  0  0  0
    4.7735   -4.2297   -1.4849 H   0  0  0  0  0  0  0  0  0  0  0  0
    5.6014   -3.4304    0.3521 C   0  0  0  0  0  0  0  0  0  0  0  0
    6.3376   -4.2389    0.4731 H   0  0  0  0  0  0  0  0  0  0  0  0
    5.5191   -2.3936    1.3123 C   0  0  0  0  0  0  0  0  0  0  0  0
    6.1896   -2.4025    2.1854 H   0  0  0  0  0  0  0  0  0  0  0  0
    4.5841   -1.3715    1.1752 C   0  0  0  0  0  0  0  0  0  0  0  0
    4.5123   -0.6039    1.9600 H   0  0  0  0  0  0  0  0  0  0  0  0
    3.6983   -1.3234    0.0616 C   0  0  0  0  0  0  0  0  0  0  0  0
    2.7269   -0.2693   -0.1202 C   0  0  0  0  0  0  0  0  0  0  0  0
    2.8060    0.9470    0.6393 C   0  0  0  0  0  3  0  0  0  0  0  0
    3.7911    1.2354    1.0624 H   0  0  0  0  0  0  0  0  0  0  0  0
   -0.2687   -0.0533    0.8976 O   0  5  0  0  0  0  0  0  0  0  0  0
   -2.4630    0.6772   -0.9088 C   0  0  0  0  0  3  0  0  0  0  0  0
   -3.3355    0.8431   -1.5679 H   0  0  0  0  0  0  0  0  0  0  0  0
   -2.4494   -0.5042   -0.1058 C   0  0  0  0  0  0  0  0  0  0  0  0
   -3.5785   -1.4259   -0.1531 C   0  0  0  0  0  0  0  0  0  0  0  0
   -4.7447   -1.2071   -0.9398 C   0  0  0  0  0  0  0  0  0  0  0  0
   -4.8418   -0.2961   -1.5468 H   0  0  0  0  0  0  0  0  0  0  0  0
   -5.7967   -2.1192   -0.9637 C   0  0  0  0  0  0  0  0  0  0  0  0
   -6.6801   -1.9072   -1.5855 H   0  0  0  0  0  0  0  0  0  0  0  0
   -5.7437   -3.3051   -0.1969 C   0  0  0  0  0  0  0  0  0  0  0  0
   -6.5790   -4.0205   -0.2195 H   0  0  0  0  0  0  0  0  0  0  0  0
   -4.6234   -3.5484    0.5888 C   0  0  0  0  0  0  0  0  0  0  0  0
   -4.5579   -4.4618    1.2010 H   0  0  0  0  0  0  0  0  0  0  0  0
   -3.5391   -2.6328    0.6295 C   0  0  0  0  0  0  0  0  0  0  0  0
   -2.3921   -2.8905    1.4505 C   0  0  0  0  0  0  0  0  0  0  0  0
   -2.3732   -3.8182    2.0445 H   0  0  0  0  0  0  0  0  0  0  0  0
   -1.3384   -2.0157    1.5135 C   0  0  0  0  0  0  0  0  0  0  0  0
   -0.4592   -2.2052    2.1453 H   0  0  0  0  0  0  0  0  0  0  0  0
   -1.3231   -0.7946    0.7449 C   0  0  0  0  0  0  0  0  0  0  0  0
  1  2  1  0  0  0  0
  2  3  1  0  0  0  0
  2  4  1  0  0  0  0
  5  6  1  0  0  0  0
  5  2  1  0  0  0  0
  7  5  1  0  0  0  0
  8  5  1  0  0  0  0
  9  8  1  0  0  0  0
 10  8  1  0  0  0  0
 10 12  1  0  0  0  0
 11 10  1  0  0  0  0
 13 10  1  0  0  0  0
 13 16  1  0  0  0  0
 14 13  1  0  0  0  0
 15 13  1  0  0  0  0
 16 37  1  0  0  0  0
 17 18  1  0  0  0  0
 18 33  1  0  0  0  0
 19 21  1  0  0  0  0
 19 18  2  0  0  0  0
 20 19  1  0  0  0  0
 21 23  2  0  0  0  0
 22 21  1  0  0  0  0
 23 24  1  0  0  0  0
 23 32  1  0  0  0  0
 24 26  2  0  0  0  0
 25 24  1  0  0  0  0
 26 27  1  0  0  0  0
 26 28  1  0  0  0  0
 28 29  1  0  0  0  0
 30 28  2  0  0  0  0
 30 31  1  0  0  0  0
 32 30  1  0  0  0  0
 33 32  2  0  0  0  0
 33 34  1  0  0  0  0
 34  1  1  0  0  0  0
 34 35  1  0  0  0  0
 37 39  1  0  0  0  0
 38 37  1  0  0  0  0
 39 54  1  0  0  0  0
 40 39  2  0  0  0  0
 40 49  1  0  0  0  0
 41 40  1  0  0  0  0
 42 41  1  0  0  0  0
 43 41  2  0  0  0  0
 43 45  1  0  0  0  0
 44 43  1  0  0  0  0
 45 47  2  0  0  0  0
 46 45  1  0  0  0  0
 47 49  1  0  0  0  0
 47 48  1  0  0  0  0
 49 50  2  0  0  0  0
 50 52  1  0  0  0  0
 50 51  1  0  0  0  0
 52 53  1  0  0  0  0
 54 36  1  0  0  0  0
 54 52  2  0  0  0  0
M  CHG  2  17  -1  36  -1
M  END
