1,2
q = 0.0, confidence = 0.988

 36 38  0  0  0  0  0  0  0  0999 V2000
    0.8941   -0.0514    0.0793 P   0  0  0  0  0  0  0  0  0  0  0  0
   -1.2056    0.1684   -2.2026 O   0  0  0  0  0  1  0  0  0  0  0  0
    1.3187    1.4542   -0.9130 C   0  0  0  0  0  0  0  0  0  0  0  0
    2.3564    2.2943   -0.4838 C   0  0  0  0  0  0  0  0  0  0  0  0
    2.7584    3.4059   -1.2463 C   0  0  0  0  0  0  0  0  0  0  0  0
    2.1427    3.6794   -2.4752 C   0  0  0  0  0  0  0  0  0  0  0  0
    1.1157    2.8425   -2.9237 C   0  0  0  0  0  0  0  0  0  0  0  0
    0.6692    1.7450   -2.1504 C   0  0  0  0  0  0  0  0  0  0  0  0
   -0.4621    1.0076   -2.7298 C   0  0  0  0  0  3  0  0  0  0  0  0
    1.6268    0.2824    1.7345 C   0  0  0  0  0  0  0  0  0  0  0  0
    0.8766    1.0351    2.6629 C   0  0  0  0  0  0  0  0  0  0  0  0
    1.4099    1.3055    3.9309 C   0  0  0  0  0  0  0  0  0  0  0  0
    2.6821    0.8269    4.2836 C   0  0  0  0  0  0  0  0  0  0  0  0
    3.4284    0.0773    3.3610 C   0  0  0  0  0  0  0  0  0  0  0  0
    2.9059   -0.1958    2.0874 C   0  0  0  0  0  0  0  0  0  0  0  0
    2.0092   -1.3306   -0.6395 C   0  0  0  0  0  0  0  0  0  0  0  0
    2.9007   -1.0716   -1.6986 C   0  0  0  0  0  0  0  0  0  0  0  0
    3.6984   -2.1056   -2.2154 C   0  0  0  0  0  0  0  0  0  0  0  0
    3.6178   -3.3977   -1.6758 C   0  0  0  0  0  0  0  0  0  0  0  0
    2.7335   -3.6587   -0.6155 C   0  0  0  0  0  0  0  0  0  0  0  0
    1.9284   -2.6340   -0.1028 C   0  0  0  0  0  0  0  0  0  0  0  0
    2.8588    2.0815    0.4712 H   0  0  0  0  0  0  0  0  0  0  0  0
    3.5659    4.0545   -0.8743 H   0  0  0  0  0  0  0  0  0  0  0  0
    2.4608    4.5403   -3.0812 H   0  0  0  0  0  0  0  0  0  0  0  0
    0.6199    3.0460   -3.8862 H   0  0  0  0  0  0  0  0  0  0  0  0
   -0.6771    1.2679   -3.7973 H   0  0  0  0  0  0  0  0  0  0  0  0
   -0.1168    1.4188    2.3771 H   0  0  0  0  0  0  0  0  0  0  0  0
    0.8193    1.8912    4.6514 H   0  0  0  0  0  0  0  0  0  0  0  0
    3.0926    1.0357    5.2834 H   0  0  0  0  0  0  0  0  0  0  0  0
    4.4250   -0.3025    3.6330 H   0  0  0  0  0  0  0  0  0  0  0  0
    3.4921   -0.7873    1.3689 H   0  0  0  0  0  0  0  0  0  0  0  0
    2.9774   -0.0600   -2.1230 H   0  0  0  0  0  0  0  0  0  0  0  0
    4.3892   -1.8957   -3.0461 H   0  0  0  0  0  0  0  0  0  0  0  0
    4.2427   -4.2062   -2.0841 H   0  0  0  0  0  0  0  0  0  0  0  0
    2.6607   -4.6711   -0.1910 H   0  0  0  0  0  0  0  0  0  0  0  0
    1.2294   -2.8458    0.7207 H   0  0  0  0  0  0  0  0  0  0  0  0
  1 10  1  0  0  0  0
  3  4  1  0  0  0  0
  3  1  1  0  0  0  0
  4 22  1  0  0  0  0
  5 23  1  0  0  0  0
  5  4  2  0  0  0  0
  6  5  1  0  0  0  0
  7  6  2  0  0  0  0
  7  8  1  0  0  0  0
  8  3  2  0  0  0  0
  9  2  1  0  0  0  0
  9  8  1  0  0  0  0
 10 15  2  0  0  0  0
 10 11  1  0  0  0  0
 11 12  2  0  0  0  0
 12 13  1  0  0  0  0
 12 28  1  0  0  0  0
 13 29  1  0  0  0  0
 14 30  1  0  0  0  0
 14 13  2  0  0  0  0
 15 14  1  0  0  0  0
 16 21  1  0  0  0  0
 16  1  1  0  0  0  0
 17 16  2  0  0  0  0
 18 17  1  0  0  0  0
 18 19  2  0  0  0  0
 19 20  1  0  0  0  0
 20 35  1  0  0  0  0
 20 21  2  0  0  0  0
 21 36  1  0  0  0  0
 24  6  1  0  0  0  0
 25  7  1  0  0  0  0
 26  9  1  0  0  0  0
 27 11  1  0  0  0  0
 31 15  1  0  0  0  0
 32 17  1  0  0  0  0
 33 18  1  0  0  0  0
 34 19  1  0  0  0  0
M  END
