2,3
q = -1.0, confidence = 0.016

 62 65  0  0  0  0  0  0  0  0999 V2000
   -0.9129   -2.2695   -1.0975 S   0  0  0  0  0  0  0  0  0  0  0  0
    0.1771    0.5121    0.3166 P   0  0  2  0  0  0  0  0  0  0  0  0
   -2.0021   -1.1530   -1.3277 O   0  0  0  0  0  1  0  0  0  0  0  0
   -0.7344   -2.5437    0.3549 O   0  0  0  0  0  1  0  0  0  0  0  0
   -1.1661   -3.4076   -2.0068 O   0  0  0  0  0  1  0  0  0  0  0  0
   -0.5129    2.3583   -1.7973 O   0  0  0  0  0  0  0  0  0  0  0  0
    4.0376    1.1967    1.4901 O   0  0  0  0  0  0  0  0  0  0  0  0
    2.1611   -3.0159    0.7039 O   0  0  0  0  0  0  0  0  0  0  0  0
    0.5707   -1.4275   -1.7042 C   0  0  0  0  0  0  0  0  0  0  0  0
    1.1796   -1.9409   -2.8590 C   0  0  0  0  0  0  0  0  0  0  0  0
    0.7612   -2.8561   -3.3024 H   0  0  0  0  0  0  0  0  0  0  0  0
    2.2686   -1.2747   -3.4307 C   0  0  0  0  0  0  0  0  0  0  0  0
    2.7409   -1.6859   -4.3371 H   0  0  0  0  0  0  0  0  0  0  0  0
    2.7593   -0.0749   -2.8748 C   0  0  0  0  0  0  0  0  0  0  0  0
    2.1308    0.4282   -1.7227 C   0  0  0  0  0  0  0  0  0  0  0  0
    2.4935    1.3672   -1.2786 H   0  0  0  0  0  0  0  0  0  0  0  0
    1.0495   -0.2378   -1.1160 C   0  0  0  0  0  0  0  0  0  0  0  0
    3.9348    0.6380   -3.4905 C   0  0  0  0  0  0  0  0  0  0  0  0
    3.8198    0.7383   -4.5891 H   0  0  0  0  0  0  0  0  0  0  0  0
    4.8730    0.0737   -3.3081 H   0  0  0  0  0  0  0  0  0  0  0  0
    4.0684    1.6493   -3.0603 H   0  0  0  0  0  0  0  0  0  0  0  0
   -0.9719    3.0244   -2.9579 C   0  0  0  0  0  0  0  0  0  0  0  0
   -1.6853    3.8407   -2.7079 H   0  0  0  0  0  0  0  0  0  0  0  0
   -1.4921    2.2597   -3.5631 H   0  0  0  0  0  0  0  0  0  0  0  0
   -0.1285    3.4466   -3.5478 H   0  0  0  0  0  0  0  0  0  0  0  0
    0.1823    3.0477   -0.8574 C   0  0  0  0  0  0  0  0  0  0  0  0
    0.4793    4.4210   -0.9348 C   0  0  0  0  0  0  0  0  0  0  0  0
    0.1387    5.0193   -1.7903 H   0  0  0  0  0  0  0  0  0  0  0  0
    1.2090    5.0313    0.0989 C   0  0  0  0  0  0  0  0  0  0  0  0
    1.4316    6.1073    0.0335 H   0  0  0  0  0  0  0  0  0  0  0  0
    1.6455    4.2884    1.2042 C   0  0  0  0  0  0  0  0  0  0  0  0
    2.2083    4.7741    2.0149 H   0  0  0  0  0  0  0  0  0  0  0  0
    1.3531    2.9166    1.2779 C   0  0  0  0  0  0  0  0  0  0  0  0
    1.6990    2.3198    2.1331 H   0  0  0  0  0  0  0  0  0  0  0  0
    0.6318    2.2834    0.2539 C   0  0  0  0  0  0  0  0  0  0  0  0
    0.8502   -0.0825    1.9194 C   0  0  0  0  0  0  0  0  0  0  0  0
   -0.0163    0.1513    3.0118 C   0  0  0  0  0  0  0  0  0  0  0  0
   -0.9738    0.6677    2.8189 H   0  0  0  0  0  0  0  0  0  0  0  0
    0.3542   -0.2298    4.3064 C   0  0  0  0  0  0  0  0  0  0  0  0
   -0.3303   -0.0390    5.1469 H   0  0  0  0  0  0  0  0  0  0  0  0
    1.5911   -0.8556    4.5211 C   0  0  0  0  0  0  0  0  0  0  0  0
    1.8885   -1.1716    5.5329 H   0  0  0  0  0  0  0  0  0  0  0  0
    2.4564   -1.0711    3.4421 C   0  0  0  0  0  0  0  0  0  0  0  0
    3.4341   -1.5497    3.6028 H   0  0  0  0  0  0  0  0  0  0  0  0
    2.1158   -0.6840    2.1282 C   0  0  0  0  0  0  0  0  0  0  0  0
    4.9533    2.2345    1.2051 C   0  0  0  0  0  0  0  0  0  0  0  0
    4.6522    3.0962    1.8292 H   0  0  0  0  0  0  0  0  0  0  0  0
    4.9140    2.5395    0.1350 H   0  0  0  0  0  0  0  0  0  0  0  0
    5.9989    1.9483    1.4579 H   0  0  0  0  0  0  0  0  0  0  0  0
    4.1423    0.0240    0.7970 C   0  0  0  0  0  0  0  0  0  0  0  0
    5.1600   -0.2454   -0.1418 C   0  0  0  0  0  0  0  0  0  0  0  0
    5.9456    0.4904   -0.3536 H   0  0  0  0  0  0  0  0  0  0  0  0
    5.1556   -1.4783   -0.8102 C   0  0  0  0  0  0  0  0  0  0  0  0
    5.9500   -1.6941   -1.5416 H   0  0  0  0  0  0  0  0  0  0  0  0
    4.1677   -2.4410   -0.5725 C   0  0  0  0  0  0  0  0  0  0  0  0
    4.1813   -3.3945   -1.1148 H   0  0  0  0  0  0  0  0  0  0  0  0
    3.1604   -2.1669    0.3779 C   0  0  0  0  0  0  0  0  0  0  0  0
    3.1363   -0.9299    1.0663 C   0  0  0  0  0  0  0  0  0  0  0  0
    2.0028   -4.2264   -0.0140 C   0  0  0  0  0  0  0  0  0  0  0  0
    2.8413   -4.9318    0.1819 H   0  0  0  0  0  0  0  0  0  0  0  0
    1.9256   -4.0449   -1.1078 H   0  0  0  0  0  0  0  0  0  0  0  0
    1.0482   -4.6591    0.3333 H   0  0  0  0  0  0  0  0  0  0  0  0
  1  4  1  0  0  0  0
  2 17  1  6  0  0  0
  2 36  1  0  0  0  0
  3  1  1  0  0  0  0
  5  1  1  0  0  0  0
  6 26  1  0  0  0  0
  9 17  1  0  0  0  0
  9  1  1  0  0  0  0
 10  9  2  0  0  0  0
 11 10  1  0  0  0  0
 12 14  2  0  0  0  0
 12 10  1  0  0  0  0
 13 12  1  0  0  0  0
 14 15  1  0  0  0  0
 15 16  1  0  0  0  0
 15 17  2  0  0  0  0
 18 20  1  0  0  0  0
 18 21  1  0  0  0  0
 18 14  1  0  0  0  0
 19 18  1  0  0  0  0
 22 23  1  0  0  0  0
 22  6  1  0  0  0  0
 24 22  1  0  0  0  0
 25 22  1  0  0  0  0
 26 35  1  0  0  0  0
 27 26  2  0  0  0  0
 27 29  1  0  0  0  0
 28 27  1  0  0  0  0
 29 31  2  0  0  0  0
 30 29  1  0  0  0  0
 31 33  1  0  0  0  0
 31 32  1  0  0  0  0
 33 34  1  0  0  0  0
 35  2  1  0  0  0  0
 35 33  2  0  0  0  0
 36 45  2  0  0  0  0
 36 37  1  0  0  0  0
 37 39  2  0  0  0  0
 38 37  1  0  0  0  0
 39 41  1  0  0  0  0
 39 40  1  0  0  0  0
 41 42  1  0  0  0  0
 43 44  1  0  0  0  0
 43 41  2  0  0  0  0
 45 43  1  0  0  0  0
 46 49  1  0  0  0  0
 46  7  1  0  0  0  0
 46 47  1  0  0  0  0
 48 46  1  0  0  0  0
 50 58  1  0  0  0  0
 50  7  1  0  0  0  0
 51 50  2  0  0  0  0
 52 51  1  0  0  0  0
 53 55  2  0  0  0  0
 53 51  1  0  0  0  0
 54 53  1  0  0  0  0
 55 57  1  0  0  0  0
 56 55  1  0  0  0  0
 57  8  1  0  0  0  0
 57 58  2  0  0  0  0
 58 45  1  0  0  0  0
 59 60  1  0  0  0  0
 59 62  1  0  0  0  0
 59  8  1  0  0  0  0
 61 59  1  0  0  0  0
M  END
