1,2
q = -1.0, confidence = 0.0

 38 38  0  0  0  0  0  0  0  0999 V2000
   -1.6043    0.6316    0.0001 P   0  0  0  0  0  0  0  0  0  0  0  0
   -0.4230   -1.9898    0.0002 O   0  5  0  0  0  0  0  0  0  0  0  0
   -3.9823   -1.0667   -0.0000 C   0  0  0  0  0  0  0  0  0  0  0  0
   -4.6276   -0.1779    0.0000 H   0  0  0  0  0  0  0  0  0  0  0  0
   -3.5879    1.6757   -1.8453 C   0  0  0  0  0  0  0  0  0  0  0  0
   -4.0889    2.2644   -1.0519 H   0  0  0  0  0  0  0  0  0  0  0  0
   -4.0834    0.6901   -1.9226 H   0  0  0  0  0  0  0  0  0  0  0  0
   -3.7545    2.2100   -2.8056 H   0  0  0  0  0  0  0  0  0  0  0  0
   -3.7548   -3.4797   -0.0002 C   0  0  0  0  0  0  0  0  0  0  0  0
   -4.2132   -4.4816   -0.0003 H   0  0  0  0  0  0  0  0  0  0  0  0
   -4.5779   -2.3346   -0.0001 C   0  0  0  0  0  0  0  0  0  0  0  0
   -5.6733   -2.4313   -0.0002 H   0  0  0  0  0  0  0  0  0  0  0  0
   -2.5773   -0.9224    0.0001 C   0  0  0  0  0  0  0  0  0  0  0  0
   -2.0768    1.5439    1.6091 C   0  0  0  0  0  0  0  0  0  0  0  0
   -2.0768    1.5439   -1.6091 C   0  0  0  0  0  0  0  0  0  0  0  0
   -1.4225    2.9350   -1.6562 C   0  0  0  0  0  0  0  0  0  0  0  0
   -1.4713    3.3195   -2.6975 H   0  0  0  0  0  0  0  0  0  0  0  0
   -0.3591    2.9126   -1.3523 H   0  0  0  0  0  0  0  0  0  0  0  0
   -1.9548    3.6616   -1.0142 H   0  0  0  0  0  0  0  0  0  0  0  0
   -1.4687    0.6455    2.7062 C   0  0  0  0  0  0  0  0  0  0  0  0
   -0.3687    0.5693    2.5932 H   0  0  0  0  0  0  0  0  0  0  0  0
   -1.8865   -0.3808    2.6703 H   0  0  0  0  0  0  0  0  0  0  0  0
   -1.6896    1.0770    3.7057 H   0  0  0  0  0  0  0  0  0  0  0  0
   -1.4224    2.9350    1.6562 C   0  0  0  0  0  0  0  0  0  0  0  0
   -1.4712    3.3196    2.6975 H   0  0  0  0  0  0  0  0  0  0  0  0
   -1.9545    3.6617    1.0143 H   0  0  0  0  0  0  0  0  0  0  0  0
   -0.3589    2.9125    1.3524 H   0  0  0  0  0  0  0  0  0  0  0  0
   -1.7366   -2.0835    0.0000 C   0  0  0  0  0  0  0  0  0  0  0  0
   -1.4686    0.6455   -2.7061 C   0  0  0  0  0  0  0  0  0  0  0  0
   -1.8863   -0.3809   -2.6702 H   0  0  0  0  0  0  0  0  0  0  0  0
   -0.3686    0.5694   -2.5931 H   0  0  0  0  0  0  0  0  0  0  0  0
   -1.6895    1.0769   -3.7056 H   0  0  0  0  0  0  0  0  0  0  0  0
   -3.5879    1.6760    1.8453 C   0  0  0  0  0  0  0  0  0  0  0  0
   -3.7544    2.2103    2.8055 H   0  0  0  0  0  0  0  0  0  0  0  0
   -4.0834    0.6904    1.9227 H   0  0  0  0  0  0  0  0  0  0  0  0
   -4.0888    2.2646    1.0518 H   0  0  0  0  0  0  0  0  0  0  0  0
   -2.3649   -3.3639   -0.0001 C   0  0  0  0  0  0  0  0  0  0  0  0
   -1.7168   -4.2533   -0.0002 H   0  0  0  0  0  0  0  0  0  0  0  0
  1 13  1  0  0  0  0
  1 14  1  0  0  0  0
  3  4  1  0  0  0  0
  3 13  1  0  0  0  0
  5 15  1  0  0  0  0
  5  6  1  0  0  0  0
  7  5  1  0  0  0  0
  8  5  1  0  0  0  0
  9 37  2  0  0  0  0
  9 11  1  0  0  0  0
 10  9  1  0  0  0  0
 11  3  2  0  0  0  0
 12 11  1  0  0  0  0
 14 24  1  0  0  0  0
 14 33  1  0  0  0  0
 14 20  1  0  0  0  0
 15  1  1  0  0  0  0
 16 15  1  0  0  0  0
 16 18  1  0  0  0  0
 16 19  1  0  0  0  0
 17 16  1  0  0  0  0
 20 23  1  0  0  0  0
 21 20  1  0  0  0  0
 22 20  1  0  0  0  0
 24 25  1  0  0  0  0
 26 24  1  0  0  0  0
 27 24  1  0  0  0  0
 28 13  2  0  0  0  0
 28  2  1  0  0  0  0
 29 30  1  0  0  0  0
 29 31  1  0  0  0  0
 29 15  1  0  0  0  0
 32 29  1  0  0  0  0
 33 35  1  0  0  0  0
 33 34  1  0  0  0  0
 36 33  1  0  0  0  0
 37 28  1  0  0  0  0
 38 37  1  0  0  0  0
M  CHG  1   2  -1
M  END
