1,2
q = -1.0, confidence = 0.006

 50 50  0  0  0  0  0  0  0  0999 V2000
    0.0811   -1.6704   -0.0700 P   0  0  0  0  0  0  0  0  0  0  0  0
    1.4322    0.8089    0.0264 O   0  5  0  0  0  0  0  0  0  0  0  0
    2.3310   -0.1572    0.0398 C   0  0  0  0  0  0  0  0  0  0  0  0
    1.9084   -1.5230   -0.0407 C   0  0  0  0  0  0  0  0  0  0  0  0
    3.7418    0.1354    0.1382 C   0  0  0  0  0  0  0  0  0  0  0  0
    3.5809    2.2477    1.5103 C   0  0  0  0  0  0  0  0  0  0  0  0
    2.4785    2.2199    1.4325 H   0  0  0  0  0  0  0  0  0  0  0  0
    3.9090    3.3047    1.6003 H   0  0  0  0  0  0  0  0  0  0  0  0
    3.8813    1.7168    2.4369 H   0  0  0  0  0  0  0  0  0  0  0  0
    4.2344    1.5879    0.2729 C   0  0  0  0  0  0  0  0  0  0  0  0
    4.6330   -0.9466    0.1041 C   0  0  0  0  0  0  0  0  0  0  0  0
    5.7118   -0.7495    0.1726 H   0  0  0  0  0  0  0  0  0  0  0  0
    2.8484   -2.5740   -0.0813 C   0  0  0  0  0  0  0  0  0  0  0  0
    2.5209   -3.6182   -0.1634 H   0  0  0  0  0  0  0  0  0  0  0  0
    5.7616    1.6703    0.4455 C   0  0  0  0  0  0  0  0  0  0  0  0
    6.1062    1.1313    1.3514 H   0  0  0  0  0  0  0  0  0  0  0  0
    6.0633    2.7320    0.5533 H   0  0  0  0  0  0  0  0  0  0  0  0
    6.3049    1.2589   -0.4296 H   0  0  0  0  0  0  0  0  0  0  0  0
   -0.3820   -2.7333    1.4483 C   0  0  0  0  0  0  0  0  0  0  0  0
    4.2132   -2.2860   -0.0139 C   0  0  0  0  0  0  0  0  0  0  0  0
    4.9550   -3.0975   -0.0430 H   0  0  0  0  0  0  0  0  0  0  0  0
   -0.3531   -2.4564   -1.7573 C   0  0  0  0  0  0  0  0  0  0  0  0
    0.0010   -1.3462   -2.7681 C   0  0  0  0  0  0  0  0  0  0  0  0
   -0.1695   -1.7191   -3.8006 H   0  0  0  0  0  0  0  0  0  0  0  0
    1.0635   -1.0414   -2.6811 H   0  0  0  0  0  0  0  0  0  0  0  0
   -0.6268   -0.4460   -2.6149 H   0  0  0  0  0  0  0  0  0  0  0  0
    3.8598    2.3742   -1.0046 C   0  0  0  0  0  0  0  0  0  0  0  0
    4.3591    1.9378   -1.8937 H   0  0  0  0  0  0  0  0  0  0  0  0
    4.1774    3.4347   -0.9158 H   0  0  0  0  0  0  0  0  0  0  0  0
    2.7680    2.3467   -1.1667 H   0  0  0  0  0  0  0  0  0  0  0  0
    0.4403   -4.0225    1.5970 C   0  0  0  0  0  0  0  0  0  0  0  0
    0.0839   -4.5636    2.4998 H   0  0  0  0  0  0  0  0  0  0  0  0
    1.5173   -3.8164    1.7365 H   0  0  0  0  0  0  0  0  0  0  0  0
    0.3163   -4.7075    0.7355 H   0  0  0  0  0  0  0  0  0  0  0  0
    0.4725   -3.7101   -2.0819 C   0  0  0  0  0  0  0  0  0  0  0  0
    0.3068   -4.5255   -1.3507 H   0  0  0  0  0  0  0  0  0  0  0  0
    1.5556   -3.4932   -2.1328 H   0  0  0  0  0  0  0  0  0  0  0  0
    0.1596   -4.0929   -3.0770 H   0  0  0  0  0  0  0  0  0  0  0  0
   -0.0616   -1.8005    2.6341 C   0  0  0  0  0  0  0  0  0  0  0  0
   -0.6523   -0.8652    2.5829 H   0  0  0  0  0  0  0  0  0  0  0  0
    1.0115   -1.5222    2.6495 H   0  0  0  0  0  0  0  0  0  0  0  0
   -0.3003   -2.3165    3.5884 H   0  0  0  0  0  0  0  0  0  0  0  0
   -1.8784   -3.0899    1.4371 C   0  0  0  0  0  0  0  0  0  0  0  0
   -2.1716   -3.4351    2.4516 H   0  0  0  0  0  0  0  0  0  0  0  0
   -2.0952   -3.9172    0.7355 H   0  0  0  0  0  0  0  0  0  0  0  0
   -2.5212   -2.2308    1.1723 H   0  0  0  0  0  0  0  0  0  0  0  0
   -1.8512   -2.7898   -1.8514 C   0  0  0  0  0  0  0  0  0  0  0  0
   -2.1106   -2.9731   -2.9160 H   0  0  0  0  0  0  0  0  0  0  0  0
   -2.4924   -1.9679   -1.4824 H   0  0  0  0  0  0  0  0  0  0  0  0
   -2.1048   -3.7088   -1.2908 H   0  0  0  0  0  0  0  0  0  0  0  0
  1  4  1  0  0  0  0
  1 19  1  0  0  0  0
  2  3  1  0  0  0  0
  3  5  1  0  0  0  0
  4  3  2  0  0  0  0
  5 10  1  0  0  0  0
  6  8  1  0  0  0  0
  6  9  1  0  0  0  0
  7  6  1  0  0  0  0
 10 15  1  0  0  0  0
 10  6  1  0  0  0  0
 11  5  2  0  0  0  0
 11 12  1  0  0  0  0
 13  4  1  0  0  0  0
 13 20  2  0  0  0  0
 14 13  1  0  0  0  0
 15 17  1  0  0  0  0
 15 16  1  0  0  0  0
 18 15  1  0  0  0  0
 19 31  1  0  0  0  0
 19 39  1  0  0  0  0
 20 11  1  0  0  0  0
 21 20  1  0  0  0  0
 22  1  1  0  0  0  0
 23 25  1  0  0  0  0
 23 26  1  0  0  0  0
 23 22  1  0  0  0  0
 24 23  1  0  0  0  0
 27 29  1  0  0  0  0
 27 10  1  0  0  0  0
 28 27  1  0  0  0  0
 30 27  1  0  0  0  0
 31 33  1  0  0  0  0
 31 32  1  0  0  0  0
 34 31  1  0  0  0  0
 35 22  1  0  0  0  0
 35 36  1  0  0  0  0
 37 35  1  0  0  0  0
 38 35  1  0  0  0  0
 39 41  1  0  0  0  0
 39 42  1  0  0  0  0
 40 39  1  0  0  0  0
 43 19  1  0  0  0  0
 43 44  1  0  0  0  0
 45 43  1  0  0  0  0
 46 43  1  0  0  0  0
 47 22  1  0  0  0  0
 47 49  1  0  0  0  0
 47 50  1  0  0  0  0
 48 47  1  0  0  0  0
M  CHG  1   2  -1
M  END
