1,5
q = -1.0, confidence = 0.014

 14 13  0  0  1  0  0  0  0  0999 V2000
    2.2819   -1.4704   -0.1616 P   0  0  2  0  0  0  0  0  0  0  0  0
    2.9014    3.0216   -1.7999 F   0  0  0  0  0  0  0  0  0  0  0  0
    2.8821    3.4664    0.3423 F   0  0  0  0  0  0  0  0  0  0  0  0
    4.5923    2.4388   -0.5441 F   0  0  0  0  0  0  0  0  0  0  0  0
    1.3602    1.2684    0.0717 O   0  0  0  0  0  1  0  0  0  0  0  0
    3.2295    0.1604   -0.5678 O   0  0  0  0  0  0  0  0  0  0  0  0
    2.5463    1.2176   -0.3213 C   0  0  1  0  0  3  0  0  0  0  0  0
    3.2607    2.5686   -0.5859 C   0  0  0  0  0  0  0  0  0  0  0  0
    3.3413   -1.7766    1.3053 C   0  0  0  0  0  0  0  0  0  0  0  0
    2.6724   -2.6074   -1.3278 C   0  0  0  0  0  0  0  0  0  0  0  0
    2.6633   -3.6301   -2.0971 C   0  0  0  0  0  3  0  0  0  0  0  0
    4.3875   -1.8768    0.9604 H   0  0  0  0  0  0  0  0  0  0  0  0
    3.2498   -0.9585    2.0430 H   0  0  0  0  0  0  0  0  0  0  0  0
    3.0140   -2.7307    1.7614 H   0  0  0  0  0  0  0  0  0  0  0  0
  1 10  1  6  0  0  0
  1  9  1  0  0  0  0
  2  8  1  0  0  0  0
  6  7  1  0  0  0  0
  6  1  1  0  0  0  0
  7  5  1  6  0  0  0
  8  4  1  0  0  0  0
  8  7  1  0  0  0  0
  8  3  1  0  0  0  0
  9 14  1  0  0  0  0
  9 13  1  0  0  0  0
 11 10  3  0  0  0  0
 12  9  1  0  0  0  0
M  END
