1,2
q = -1.0, confidence = 0.078

 58 62  0  0  1  0  0  0  0  0999 V2000
   -0.1347   -0.3996    0.5078 P   0  0  0  0  0  0  0  0  0  0  0  0
    1.4149    2.0994    0.4376 O   0  0  0  0  0  1  0  0  0  0  0  0
   -1.7183    3.9056    0.9900 O   0  0  0  0  0  0  0  0  0  0  0  0
   -4.7367    2.1739   -0.1420 O   0  0  0  0  0  0  0  0  0  0  0  0
   -3.0798    0.5896    0.4009 O   0  0  0  0  0  0  0  0  0  0  0  0
    0.0170    4.5816   -0.4232 O   0  0  0  0  0  0  0  0  0  0  0  0
   -0.3263    3.7553    0.6513 C   0  0  2  0  0  0  0  0  0  0  0  0
    0.2328    4.0440    1.5728 H   0  0  0  0  0  0  0  0  0  0  0  0
    0.0628    2.3141    0.2447 C   0  0  2  0  0  0  0  0  0  0  0  0
   -0.2330    2.2411   -0.8366 H   0  0  0  0  0  0  0  0  0  0  0  0
   -0.7818    1.2774    1.0421 C   0  0  1  0  0  0  0  0  0  0  0  0
   -0.3959    1.3323    2.0827 H   0  0  0  0  0  0  0  0  0  0  0  0
   -2.2853    1.5811    1.0471 C   0  0  1  0  0  0  0  0  0  0  0  0
   -2.6310    1.6847    2.1062 H   0  0  0  0  0  0  0  0  0  0  0  0
   -2.5266    2.9331    0.3594 C   0  0  1  0  0  0  0  0  0  0  0  0
   -2.2819    2.8285   -0.7217 H   0  0  0  0  0  0  0  0  0  0  0  0
   -4.0139    3.2515    0.4546 C   0  0  0  0  0  0  0  0  0  0  0  0
   -4.3077    3.3887    1.5243 H   0  0  0  0  0  0  0  0  0  0  0  0
   -4.2784    4.1701   -0.1037 H   0  0  0  0  0  0  0  0  0  0  0  0
   -4.4657    0.9300    0.4580 C   0  0  2  0  0  0  0  0  0  0  0  0
   -4.7591    0.9752    1.5429 H   0  0  0  0  0  0  0  0  0  0  0  0
   -5.2095   -0.1680   -0.2641 C   0  0  0  0  0  0  0  0  0  0  0  0
   -5.5273   -1.3559    0.4168 C   0  0  0  0  0  0  0  0  0  0  0  0
   -5.2946   -1.4470    1.4900 H   0  0  0  0  0  0  0  0  0  0  0  0
   -6.1354   -2.4212   -0.2634 C   0  0  0  0  0  0  0  0  0  0  0  0
   -6.3832   -3.3478    0.2763 H   0  0  0  0  0  0  0  0  0  0  0  0
   -6.4314   -2.3003   -1.6310 C   0  0  0  0  0  0  0  0  0  0  0  0
   -6.9120   -3.1335   -2.1664 H   0  0  0  0  0  0  0  0  0  0  0  0
   -6.1164   -1.1132   -2.3120 C   0  0  0  0  0  0  0  0  0  0  0  0
   -6.3457   -1.0164   -3.3842 H   0  0  0  0  0  0  0  0  0  0  0  0
   -5.5043   -0.0504   -1.6326 C   0  0  0  0  0  0  0  0  0  0  0  0
   -5.2454    0.8827   -2.1518 H   0  0  0  0  0  0  0  0  0  0  0  0
   -1.0677   -0.9955   -0.9560 C   0  0  0  0  0  0  0  0  0  0  0  0
   -0.7987   -0.3582   -2.1857 C   0  0  0  0  0  0  0  0  0  0  0  0
   -0.0199    0.4192   -2.2360 H   0  0  0  0  0  0  0  0  0  0  0  0
   -1.5036   -0.7301   -3.3390 C   0  0  0  0  0  0  0  0  0  0  0  0
   -1.2942   -0.2217   -4.2924 H   0  0  0  0  0  0  0  0  0  0  0  0
   -2.4615   -1.7549   -3.2794 C   0  0  0  0  0  0  0  0  0  0  0  0
   -3.0168   -2.0454   -4.1842 H   0  0  0  0  0  0  0  0  0  0  0  0
   -2.7033   -2.4157   -2.0653 C   0  0  0  0  0  0  0  0  0  0  0  0
   -3.4531   -3.2189   -2.0122 H   0  0  0  0  0  0  0  0  0  0  0  0
   -2.0106   -2.0396   -0.9062 C   0  0  0  0  0  0  0  0  0  0  0  0
   -2.2194   -2.5537    0.0421 H   0  0  0  0  0  0  0  0  0  0  0  0
   -0.5152   -1.5270    1.9016 C   0  0  0  0  0  0  0  0  0  0  0  0
   -1.8286   -1.6488    2.4072 C   0  0  0  0  0  0  0  0  0  0  0  0
   -2.6452   -1.0831    1.9336 H   0  0  0  0  0  0  0  0  0  0  0  0
   -2.0826   -2.4898    3.5002 C   0  0  0  0  0  0  0  0  0  0  0  0
   -3.1079   -2.5824    3.8906 H   0  0  0  0  0  0  0  0  0  0  0  0
   -1.0340   -3.2093    4.0973 C   0  0  0  0  0  0  0  0  0  0  0  0
   -1.2371   -3.8677    4.9558 H   0  0  0  0  0  0  0  0  0  0  0  0
    0.2733   -3.0816    3.6030 C   0  0  0  0  0  0  0  0  0  0  0  0
    1.0991   -3.6370    4.0727 H   0  0  0  0  0  0  0  0  0  0  0  0
    0.5366   -2.2410    2.5103 C   0  0  0  0  0  0  0  0  0  0  0  0
    1.5605   -2.1244    2.1235 H   0  0  0  0  0  0  0  0  0  0  0  0
   -0.0331    5.9627   -0.1205 C   0  0  0  0  0  0  0  0  0  0  0  0
    0.2540    6.5131   -1.0369 H   0  0  0  0  0  0  0  0  0  0  0  0
    0.6790    6.2295    0.6967 H   0  0  0  0  0  0  0  0  0  0  0  0
   -1.0534    6.2797    0.1899 H   0  0  0  0  0  0  0  0  0  0  0  0
  1 11  1  0  0  0  0
  1 44  1  0  0  0  0
  4 17  1  0  0  0  0
  4 20  1  0  0  0  0
  5 20  1  0  0  0  0
  5 13  1  0  0  0  0
  6 55  1  0  0  0  0
  6  7  1  0  0  0  0
  7  3  1  0  0  0  0
  7  8  1  1  0  0  0
  9 10  1  6  0  0  0
  9  2  1  0  0  0  0
  9  7  1  0  0  0  0
  9 11  1  0  0  0  0
 11 13  1  0  0  0  0
 11 12  1  1  0  0  0
 13 14  1  1  0  0  0
 15 16  1  6  0  0  0
 15 17  1  0  0  0  0
 15  3  1  0  0  0  0
 15 13  1  0  0  0  0
 17 18  1  0  0  0  0
 19 17  1  0  0  0  0
 20 21  1  1  0  0  0
 22 23  1  0  0  0  0
 22 20  1  0  0  0  0
 23 24  1  0  0  0  0
 25 26  1  0  0  0  0
 25 23  2  0  0  0  0
 27 25  1  0  0  0  0
 28 27  1  0  0  0  0
 29 31  1  0  0  0  0
 29 27  2  0  0  0  0
 30 29  1  0  0  0  0
 31 22  2  0  0  0  0
 32 31  1  0  0  0  0
 33 42  1  0  0  0  0
 33  1  1  0  0  0  0
 34 33  2  0  0  0  0
 35 34  1  0  0  0  0
 36 38  2  0  0  0  0
 36 34  1  0  0  0  0
 37 36  1  0  0  0  0
 38 40  1  0  0  0  0
 39 38  1  0  0  0  0
 40 41  1  0  0  0  0
 40 42  2  0  0  0  0
 42 43  1  0  0  0  0
 44 45  2  0  0  0  0
 44 53  1  0  0  0  0
 45 47  1  0  0  0  0
 46 45  1  0  0  0  0
 47 48  1  0  0  0  0
 47 49  2  0  0  0  0
 49 50  1  0  0  0  0
 51 52  1  0  0  0  0
 51 49  1  0  0  0  0
 53 51  2  0  0  0  0
 54 53  1  0  0  0  0
 55 58  1  0  0  0  0
 55 57  1  0  0  0  0
 56 55  1  0  0  0  0
M  END
