1,16
q = -1.0, confidence = 0.014

 38 40  0  0  0  0  0  0  0  0999 V2000
    0.1237   -1.0193    1.4861 O   0  5  0  0  0  0  0  0  0  0  0  0
    1.2018   -1.7893    1.8026 C   0  0  0  0  0  0  0  0  0  0  0  0
    0.9525   -3.1716    2.0313 C   0  0  0  0  0  0  0  0  0  0  0  0
   -0.3185   -3.6303    1.9177 O   0  0  0  0  0  0  0  0  0  0  0  0
   -0.8453   -2.8434    1.6463 H   0  0  0  0  0  0  0  0  0  0  0  0
    2.0097   -4.0335    2.3574 C   0  0  0  0  0  0  0  0  0  0  0  0
    1.7883   -5.0965    2.5326 H   0  0  0  0  0  0  0  0  0  0  0  0
    3.3194   -3.5308    2.4371 C   0  0  0  0  0  0  0  0  0  0  0  0
    4.1480   -4.2109    2.6852 H   0  0  0  0  0  0  0  0  0  0  0  0
    3.5765   -2.1740    2.1989 C   0  0  0  0  0  0  0  0  0  0  0  0
    4.6044   -1.7836    2.2511 H   0  0  0  0  0  0  0  0  0  0  0  0
    2.5211   -1.2889    1.8928 C   0  0  0  0  0  0  0  0  0  0  0  0
    2.7596    0.1604    1.5855 C   0  0  0  0  0  0  0  0  0  0  0  0
    3.8178    0.4510    1.7349 H   0  0  0  0  0  0  0  0  0  0  0  0
    2.1173    0.8286    2.1950 H   0  0  0  0  0  0  0  0  0  0  0  0
    2.2762    0.5026   -0.1900 P   0  0  0  0  0  0  0  0  0  0  0  0
    3.5463   -0.3843   -1.1660 C   0  0  0  0  0  0  0  0  0  0  0  0
    3.1340   -1.4179   -2.0288 C   0  0  0  0  0  0  0  0  0  0  0  0
    2.0571   -1.6324   -2.1231 H   0  0  0  0  0  0  0  0  0  0  0  0
    4.0863   -2.1635   -2.7404 C   0  0  0  0  0  0  0  0  0  0  0  0
    3.7584   -2.9717   -3.4114 H   0  0  0  0  0  0  0  0  0  0  0  0
    5.4526   -1.8815   -2.5920 C   0  0  0  0  0  0  0  0  0  0  0  0
    6.1997   -2.4672   -3.1489 H   0  0  0  0  0  0  0  0  0  0  0  0
    5.8697   -0.8535   -1.7290 C   0  0  0  0  0  0  0  0  0  0  0  0
    6.9415   -0.6339   -1.6096 H   0  0  0  0  0  0  0  0  0  0  0  0
    4.9218   -0.1077   -1.0149 C   0  0  0  0  0  0  0  0  0  0  0  0
    5.2538    0.6967   -0.3400 H   0  0  0  0  0  0  0  0  0  0  0  0
    2.5763    2.2951   -0.4216 C   0  0  0  0  0  0  0  0  0  0  0  0
    1.9139    3.1727    0.4636 C   0  0  0  0  0  0  0  0  0  0  0  0
    1.2795    2.7800    1.2705 H   0  0  0  0  0  0  0  0  0  0  0  0
    2.0445    4.5589    0.3163 C   0  0  0  0  0  0  0  0  0  0  0  0
    1.5248    5.2200    1.0261 H   0  0  0  0  0  0  0  0  0  0  0  0
    2.8214    5.0832   -0.7305 C   0  0  0  0  0  0  0  0  0  0  0  0
    2.9204    6.1726   -0.8527 H   0  0  0  0  0  0  0  0  0  0  0  0
    3.4651    4.2148   -1.6261 C   0  0  0  0  0  0  0  0  0  0  0  0
    4.0663    4.6218   -2.4534 H   0  0  0  0  0  0  0  0  0  0  0  0
    3.3467    2.8234   -1.4761 C   0  0  0  0  0  0  0  0  0  0  0  0
    3.8505    2.1492   -2.1845 H   0  0  0  0  0  0  0  0  0  0  0  0
  1  2  1  0  0  0  0
  2 12  2  0  0  0  0
  2  3  1  0  0  0  0
  3  6  2  0  0  0  0
  4  3  1  0  0  0  0
  5  4  1  0  0  0  0
  6  8  1  0  0  0  0
  6  7  1  0  0  0  0
  8  9  1  0  0  0  0
 10 11  1  0  0  0  0
 10  8  2  0  0  0  0
 12 10  1  0  0  0  0
 13 14  1  0  0  0  0
 13 12  1  0  0  0  0
 13 15  1  0  0  0  0
 16 13  1  0  0  0  0
 17 26  1  0  0  0  0
 17 16  1  0  0  0  0
 18 17  2  0  0  0  0
 19 18  1  0  0  0  0
 20 22  2  0  0  0  0
 20 18  1  0  0  0  0
 21 20  1  0  0  0  0
 22 24  1  0  0  0  0
 23 22  1  0  0  0  0
 24 25  1  0  0  0  0
 24 26  2  0  0  0  0
 26 27  1  0  0  0  0
 28 16  1  0  0  0  0
 28 29  1  0  0  0  0
 29 30  1  0  0  0  0
 31 29  2  0  0  0  0
 31 32  1  0  0  0  0
 33 31  1  0  0  0  0
 34 33  1  0  0  0  0
 35 37  1  0  0  0  0
 35 33  2  0  0  0  0
 36 35  1  0  0  0  0
 37 28  2  0  0  0  0
 38 37  1  0  0  0  0
M  CHG  1   1  -1
M  END
