1,2
q = -1.0, confidence = 0.018

 52 55  0  0  0  0  0  0  0  0999 V2000
    0.4976   -0.7328    0.2856 P   0  0  0  0  0  0  0  0  0  0  0  0
    0.0937    2.1393    0.1738 O   0  5  0  0  0  0  0  0  0  0  0  0
   -2.3130   -1.9687    0.3325 O   0  0  0  0  0  0  0  0  0  0  0  0
   -3.3964   -0.1656   -0.6039 N   0  0  0  0  0  0  0  0  0  0  0  0
   -1.1177    0.0880    0.1978 C   0  0  0  0  0  0  0  0  0  0  0  0
   -1.0269    1.4951    0.2666 C   0  0  0  0  0  0  0  0  0  0  0  0
   -2.2273    2.3670    0.4799 C   0  0  0  0  0  0  0  0  0  0  0  0
   -2.3666    3.5495   -0.2775 C   0  0  0  0  0  0  0  0  0  0  0  0
   -3.4835    4.3786   -0.0997 C   0  0  0  0  0  0  0  0  0  0  0  0
   -4.4617    4.0470    0.8523 C   0  0  0  0  0  0  0  0  0  0  0  0
   -4.3166    2.8853    1.6297 C   0  0  0  0  0  0  0  0  0  0  0  0
   -3.2077    2.0491    1.4454 C   0  0  0  0  0  0  0  0  0  0  0  0
   -2.3069   -0.7664    0.0188 C   0  0  0  0  0  0  0  0  0  0  0  0
   -4.7145   -0.6273   -0.7145 C   0  0  0  0  0  0  0  0  0  0  0  0
   -5.0911   -1.9716   -0.4892 C   0  0  0  0  0  0  0  0  0  0  0  0
   -6.4363   -2.3424   -0.6228 C   0  0  0  0  0  0  0  0  0  0  0  0
   -7.4198   -1.4074   -0.9831 C   0  0  0  0  0  0  0  0  0  0  0  0
   -7.0432   -0.0730   -1.2088 C   0  0  0  0  0  0  0  0  0  0  0  0
   -5.7066    0.3173   -1.0726 C   0  0  0  0  0  0  0  0  0  0  0  0
    0.7618   -1.4687    1.9504 C   0  0  0  0  0  0  0  0  0  0  0  0
    1.9126   -1.1127    2.6841 C   0  0  0  0  0  0  0  0  0  0  0  0
    2.1251   -1.6492    3.9634 C   0  0  0  0  0  0  0  0  0  0  0  0
    1.1916   -2.5392    4.5163 C   0  0  0  0  0  0  0  0  0  0  0  0
    0.0410   -2.8892    3.7893 C   0  0  0  0  0  0  0  0  0  0  0  0
   -0.1812   -2.3590    2.5102 C   0  0  0  0  0  0  0  0  0  0  0  0
    0.4795   -2.1201   -0.9039 C   0  0  0  0  0  0  0  0  0  0  0  0
    0.0804   -1.8423   -2.2273 C   0  0  0  0  0  0  0  0  0  0  0  0
    0.0996   -2.8547   -3.1941 C   0  0  0  0  0  0  0  0  0  0  0  0
    0.5280   -4.1489   -2.8516 C   0  0  0  0  0  0  0  0  0  0  0  0
    0.9322   -4.4257   -1.5373 C   0  0  0  0  0  0  0  0  0  0  0  0
    0.9082   -3.4161   -0.5624 C   0  0  0  0  0  0  0  0  0  0  0  0
   -3.2721    0.8181   -0.8494 H   0  0  0  0  0  0  0  0  0  0  0  0
   -1.5879    3.8011   -1.0127 H   0  0  0  0  0  0  0  0  0  0  0  0
   -3.5915    5.2907   -0.7064 H   0  0  0  0  0  0  0  0  0  0  0  0
   -5.3378    4.6982    0.9930 H   0  0  0  0  0  0  0  0  0  0  0  0
   -5.0742    2.6282    2.3851 H   0  0  0  0  0  0  0  0  0  0  0  0
   -3.0897    1.1382    2.0509 H   0  0  0  0  0  0  0  0  0  0  0  0
   -4.3152   -2.6945   -0.2128 H   0  0  0  0  0  0  0  0  0  0  0  0
   -6.7175   -3.3921   -0.4451 H   0  0  0  0  0  0  0  0  0  0  0  0
   -8.4709   -1.7147   -1.0886 H   0  0  0  0  0  0  0  0  0  0  0  0
   -7.7989    0.6770   -1.4888 H   0  0  0  0  0  0  0  0  0  0  0  0
   -5.4166    1.3686   -1.2331 H   0  0  0  0  0  0  0  0  0  0  0  0
    2.6380   -0.4122    2.2414 H   0  0  0  0  0  0  0  0  0  0  0  0
    3.0262   -1.3684    4.5297 H   0  0  0  0  0  0  0  0  0  0  0  0
    1.3586   -2.9594    5.5201 H   0  0  0  0  0  0  0  0  0  0  0  0
   -0.6963   -3.5815    4.2244 H   0  0  0  0  0  0  0  0  0  0  0  0
   -1.0847   -2.6056    1.9302 H   0  0  0  0  0  0  0  0  0  0  0  0
   -0.2531   -0.8262   -2.4919 H   0  0  0  0  0  0  0  0  0  0  0  0
   -0.2214   -2.6337   -4.2234 H   0  0  0  0  0  0  0  0  0  0  0  0
    0.5443   -4.9435   -3.6130 H   0  0  0  0  0  0  0  0  0  0  0  0
    1.2645   -5.4385   -1.2632 H   0  0  0  0  0  0  0  0  0  0  0  0
    1.2105   -3.6409    0.4711 H   0  0  0  0  0  0  0  0  0  0  0  0
  1 20  1  0  0  0  0
  2  6  1  0  0  0  0
  4 13  1  0  0  0  0
  5  6  2  0  0  0  0
  5  1  1  0  0  0  0
  6  7  1  0  0  0  0
  7 12  1  0  0  0  0
  8  9  1  0  0  0  0
  8  7  2  0  0  0  0
  9 10  2  0  0  0  0
 10 35  1  0  0  0  0
 10 11  1  0  0  0  0
 11 36  1  0  0  0  0
 12 11  2  0  0  0  0
 12 37  1  0  0  0  0
 13  5  1  0  0  0  0
 13  3  2  0  0  0  0
 14  4  1  0  0  0  0
 14 15  1  0  0  0  0
 15 38  1  0  0  0  0
 16 15  2  0  0  0  0
 16 39  1  0  0  0  0
 17 16  1  0  0  0  0
 18 19  1  0  0  0  0
 18 17  2  0  0  0  0
 19 14  2  0  0  0  0
 20 25  2  0  0  0  0
 20 21  1  0  0  0  0
 21 22  2  0  0  0  0
 22 23  1  0  0  0  0
 22 44  1  0  0  0  0
 23 45  1  0  0  0  0
 24 46  1  0  0  0  0
 24 23  2  0  0  0  0
 25 24  1  0  0  0  0
 26 31  1  0  0  0  0
 26  1  1  0  0  0  0
 27 26  2  0  0  0  0
 28 29  2  0  0  0  0
 28 27  1  0  0  0  0
 29 30  1  0  0  0  0
 30 51  1  0  0  0  0
 30 31  2  0  0  0  0
 31 52  1  0  0  0  0
 32  4  1  0  0  0  0
 33  8  1  0  0  0  0
 34  9  1  0  0  0  0
 40 17  1  0  0  0  0
 41 18  1  0  0  0  0
 42 19  1  0  0  0  0
 43 21  1  0  0  0  0
 47 25  1  0  0  0  0
 48 27  1  0  0  0  0
 49 28  1  0  0  0  0
 50 29  1  0  0  0  0
M  CHG  1   2  -1
M  END
