2,3
q = -1.0, confidence = 0.01

 49 51  0  0  0  0  0  0  0  0999 V2000
   -0.7239    2.4503   -1.0853 S   0  0  0  0  0  0  0  0  0  0  0  0
    0.4345   -0.5456   -0.1999 P   0  0  0  0  0  0  0  0  0  0  0  0
   -1.7030    1.8958   -0.0038 O   0  0  0  0  0  1  0  0  0  0  0  0
   -0.6812    1.5623   -2.2834 O   0  0  0  0  0  1  0  0  0  0  0  0
   -0.9483    3.8987   -1.2937 O   0  0  0  0  0  1  0  0  0  0  0  0
    0.2894   -0.2670    2.6531 O   0  0  0  0  0  0  0  0  0  0  0  0
    3.2441   -1.0435   -1.2342 O   0  0  0  0  0  0  0  0  0  0  0  0
    4.5831    1.9211    1.6263 O   0  0  0  0  0  0  0  0  0  0  0  0
    0.0386    0.1232    3.9898 C   0  0  0  0  0  0  0  0  0  0  0  0
   -0.6257   -0.6014    4.5107 H   0  0  0  0  0  0  0  0  0  0  0  0
   -0.4681    1.1034    3.9305 H   0  0  0  0  0  0  0  0  0  0  0  0
    0.9832    0.2311    4.5676 H   0  0  0  0  0  0  0  0  0  0  0  0
    0.8978   -1.4514    2.3971 C   0  0  0  0  0  0  0  0  0  0  0  0
    1.3097   -2.3668    3.3840 C   0  0  0  0  0  0  0  0  0  0  0  0
    1.1624   -2.1428    4.4489 H   0  0  0  0  0  0  0  0  0  0  0  0
    1.9064   -3.5788    2.9994 C   0  0  0  0  0  0  0  0  0  0  0  0
    2.2238   -4.2906    3.7767 H   0  0  0  0  0  0  0  0  0  0  0  0
    2.0921   -3.8870    1.6449 C   0  0  0  0  0  0  0  0  0  0  0  0
    2.5499   -4.8418    1.3481 H   0  0  0  0  0  0  0  0  0  0  0  0
    1.6893   -2.9666    0.6633 C   0  0  0  0  0  0  0  0  0  0  0  0
    1.8253   -3.2039   -0.4017 H   0  0  0  0  0  0  0  0  0  0  0  0
    1.1044   -1.7419    1.0206 C   0  0  0  0  0  0  0  0  0  0  0  0
    4.6219   -1.0141   -1.5536 C   0  0  0  0  0  0  0  0  0  0  0  0
    5.0097   -2.0254   -1.8095 H   0  0  0  0  0  0  0  0  0  0  0  0
    5.1375   -0.6436   -0.6477 H   0  0  0  0  0  0  0  0  0  0  0  0
    4.8316   -0.3215   -2.3979 H   0  0  0  0  0  0  0  0  0  0  0  0
    2.3317   -1.3133   -2.2029 C   0  0  0  0  0  0  0  0  0  0  0  0
    2.6749   -1.7386   -3.5017 C   0  0  0  0  0  0  0  0  0  0  0  0
    3.7285   -1.8608   -3.7859 H   0  0  0  0  0  0  0  0  0  0  0  0
    1.6647   -2.0086   -4.4374 C   0  0  0  0  0  0  0  0  0  0  0  0
    1.9465   -2.3381   -5.4493 H   0  0  0  0  0  0  0  0  0  0  0  0
    0.3139   -1.8565   -4.0964 C   0  0  0  0  0  0  0  0  0  0  0  0
   -0.4755   -2.0552   -4.8354 H   0  0  0  0  0  0  0  0  0  0  0  0
   -0.0260   -1.4261   -2.8065 C   0  0  0  0  0  0  0  0  0  0  0  0
   -1.0774   -1.2660   -2.5238 H   0  0  0  0  0  0  0  0  0  0  0  0
    0.9646   -1.1600   -1.8446 C   0  0  0  0  0  0  0  0  0  0  0  0
    5.3861    3.0553    1.8892 C   0  0  0  0  0  0  0  0  0  0  0  0
    5.6750    3.5872    0.9545 H   0  0  0  0  0  0  0  0  0  0  0  0
    6.3006    2.6843    2.3883 H   0  0  0  0  0  0  0  0  0  0  0  0
    4.8756    3.7795    2.5636 H   0  0  0  0  0  0  0  0  0  0  0  0
    3.3811    2.1135    1.0088 C   0  0  0  0  0  0  0  0  0  0  0  0
    2.6254    0.9468    0.7753 C   0  0  0  0  0  0  0  0  0  0  0  0
    3.0372   -0.0147    1.1102 H   0  0  0  0  0  0  0  0  0  0  0  0
    1.3918    1.0080    0.1166 C   0  0  0  0  0  0  0  0  0  0  0  0
    0.8881    2.2685   -0.2823 C   0  0  0  0  0  0  0  0  0  0  0  0
    1.6314    3.4285   -0.0378 C   0  0  0  0  0  0  0  0  0  0  0  0
    1.2009    4.3892   -0.3565 H   0  0  0  0  0  0  0  0  0  0  0  0
    2.8806    3.3649    0.5979 C   0  0  0  0  0  0  0  0  0  0  0  0
    3.4457    4.2907    0.7697 H   0  0  0  0  0  0  0  0  0  0  0  0
  1 45  1  0  0  0  0
  1  3  1  0  0  0  0
  2 44  1  0  0  0  0
  2 22  1  0  0  0  0
  4  1  1  0  0  0  0
  5  1  1  0  0  0  0
  6  9  1  0  0  0  0
  8 37  1  0  0  0  0
  9 10  1  0  0  0  0
  9 12  1  0  0  0  0
 11  9  1  0  0  0  0
 13  6  1  0  0  0  0
 13 14  1  0  0  0  0
 14 15  1  0  0  0  0
 16 14  2  0  0  0  0
 16 17  1  0  0  0  0
 18 16  1  0  0  0  0
 19 18  1  0  0  0  0
 20 22  1  0  0  0  0
 20 18  2  0  0  0  0
 21 20  1  0  0  0  0
 22 13  2  0  0  0  0
 23  7  1  0  0  0  0
 23 25  1  0  0  0  0
 24 23  1  0  0  0  0
 26 23  1  0  0  0  0
 27 36  1  0  0  0  0
 27  7  1  0  0  0  0
 28 27  2  0  0  0  0
 29 28  1  0  0  0  0
 30 32  2  0  0  0  0
 30 28  1  0  0  0  0
 31 30  1  0  0  0  0
 32 34  1  0  0  0  0
 33 32  1  0  0  0  0
 34 35  1  0  0  0  0
 34 36  2  0  0  0  0
 36  2  1  0  0  0  0
 37 39  1  0  0  0  0
 37 40  1  0  0  0  0
 38 37  1  0  0  0  0
 41  8  1  0  0  0  0
 42 41  1  0  0  0  0
 42 43  1  0  0  0  0
 44 42  2  0  0  0  0
 45 46  2  0  0  0  0
 45 44  1  0  0  0  0
 46 48  1  0  0  0  0
 47 46  1  0  0  0  0
 48 49  1  0  0  0  0
 48 41  2  0  0  0  0
M  END
