1,37
q = -1.0, confidence = 0.0

 37 39  0  0  0  0  0  0  0  0999 V2000
    0.8997    0.1454    0.0741 P   0  0  0  0  0  0  0  0  0  0  0  0
   -1.6446    2.2512    0.5059 S   0  0  0  0  0  0  0  0  0  0  0  0
    2.2649   -1.0303    0.4877 C   0  0  0  0  0  0  0  0  0  0  0  0
    1.9928   -2.2233    1.1907 C   0  0  0  0  0  0  0  0  0  0  0  0
    0.9602   -2.4702    1.4702 H   0  0  0  0  0  0  0  0  0  0  0  0
    3.0340   -3.1010    1.5280 C   0  0  0  0  0  0  0  0  0  0  0  0
    2.8096   -4.0280    2.0777 H   0  0  0  0  0  0  0  0  0  0  0  0
    4.3583   -2.7979    1.1704 C   0  0  0  0  0  0  0  0  0  0  0  0
    5.1741   -3.4870    1.4357 H   0  0  0  0  0  0  0  0  0  0  0  0
    4.6369   -1.6104    0.4765 C   0  0  0  0  0  0  0  0  0  0  0  0
    5.6720   -1.3635    0.1966 H   0  0  0  0  0  0  0  0  0  0  0  0
    3.5983   -0.7303    0.1350 C   0  0  0  0  0  0  0  0  0  0  0  0
    3.8276    0.1961   -0.4112 H   0  0  0  0  0  0  0  0  0  0  0  0
    1.6338    1.1188   -1.2945 C   0  0  0  0  0  0  0  0  0  0  0  0
    1.8930    0.4482   -2.5082 C   0  0  0  0  0  0  0  0  0  0  0  0
    1.6504   -0.6212   -2.6098 H   0  0  0  0  0  0  0  0  0  0  0  0
    2.4653    1.1414   -3.5844 C   0  0  0  0  0  0  0  0  0  0  0  0
    2.6746    0.6135   -4.5272 H   0  0  0  0  0  0  0  0  0  0  0  0
    2.7768    2.5063   -3.4541 C   0  0  0  0  0  0  0  0  0  0  0  0
    3.2285    3.0506   -4.2971 H   0  0  0  0  0  0  0  0  0  0  0  0
    2.5162    3.1729   -2.2466 C   0  0  0  0  0  0  0  0  0  0  0  0
    2.7566    4.2414   -2.1427 H   0  0  0  0  0  0  0  0  0  0  0  0
    1.9428    2.4843   -1.1665 C   0  0  0  0  0  0  0  0  0  0  0  0
    1.7215    3.0140   -0.2299 H   0  0  0  0  0  0  0  0  0  0  0  0
    0.8002    1.2449    1.5495 C   0  0  0  0  0  0  0  0  0  0  0  0
    1.7854    1.1934    2.5563 C   0  0  0  0  0  0  0  0  0  0  0  0
    2.6573    0.5352    2.4307 H   0  0  0  0  0  0  0  0  0  0  0  0
    1.6635    1.9726    3.7182 C   0  0  0  0  0  0  0  0  0  0  0  0
    2.4488    1.9268    4.4875 H   0  0  0  0  0  0  0  0  0  0  0  0
    0.5488    2.8063    3.8932 C   0  0  0  0  0  0  0  0  0  0  0  0
    0.4511    3.4189    4.8021 H   0  0  0  0  0  0  0  0  0  0  0  0
   -0.4447    2.8643    2.9035 C   0  0  0  0  0  0  0  0  0  0  0  0
   -1.3321    3.5059    3.0069 H   0  0  0  0  0  0  0  0  0  0  0  0
   -0.3205    2.0900    1.7417 C   0  0  0  0  0  0  0  0  0  0  0  0
   -0.9615    2.6521   -0.7565 O   0  0  0  0  0  1  0  0  0  0  0  0
   -2.6695    3.1435    1.0735 O   0  0  0  0  0  1  0  0  0  0  0  0
   -2.2393    0.8018    0.4136 O   0  0  0  0  0  1  0  0  0  0  0  0
  1  3  1  0  0  0  0
  1 25  1  0  0  0  0
  2 36  1  0  0  0  0
  2 34  1  0  0  0  0
  3  4  1  0  0  0  0
  4  5  1  0  0  0  0
  4  6  2  0  0  0  0
  6  7  1  0  0  0  0
  8  9  1  0  0  0  0
  8  6  1  0  0  0  0
 10  8  2  0  0  0  0
 11 10  1  0  0  0  0
 12 10  1  0  0  0  0
 12  3  2  0  0  0  0
 13 12  1  0  0  0  0
 14 23  1  0  0  0  0
 14  1  1  0  0  0  0
 15 14  2  0  0  0  0
 16 15  1  0  0  0  0
 17 19  2  0  0  0  0
 17 15  1  0  0  0  0
 18 17  1  0  0  0  0
 19 21  1  0  0  0  0
 20 19  1  0  0  0  0
 21 22  1  0  0  0  0
 21 23  2  0  0  0  0
 23 24  1  0  0  0  0
 25 34  2  0  0  0  0
 25 26  1  0  0  0  0
 26 28  2  0  0  0  0
 27 26  1  0  0  0  0
 28 30  1  0  0  0  0
 28 29  1  0  0  0  0
 30 31  1  0  0  0  0
 32 33  1  0  0  0  0
 32 30  2  0  0  0  0
 34 32  1  0  0  0  0
 35  2  1  0  0  0  0
 37  2  1  0  0  0  0
M  END
