44,46
q = 0.0, confidence = 0.996

 46 48  0  0  1  0  0  0  0  0999 V2000
   -2.2057   -0.8720   -1.4767 C   0  0  0  0  0  0  0  0  0  0  0  0
   -3.4574   -0.4371   -1.9660 C   0  0  0  0  0  0  0  0  0  0  0  0
   -3.9107    0.4880   -1.5821 H   0  0  0  0  0  0  0  0  0  0  0  0
   -4.1347   -1.1865   -2.9369 C   0  0  0  0  0  0  0  0  0  0  0  0
   -5.1103   -0.8380   -3.3085 H   0  0  0  0  0  0  0  0  0  0  0  0
   -3.5751   -2.3789   -3.4239 C   0  0  0  0  0  0  0  0  0  0  0  0
   -4.1086   -2.9670   -4.1867 H   0  0  0  0  0  0  0  0  0  0  0  0
   -2.3341   -2.8157   -2.9362 C   0  0  0  0  0  0  0  0  0  0  0  0
   -1.8877   -3.7484   -3.3137 H   0  0  0  0  0  0  0  0  0  0  0  0
   -1.6454   -2.0666   -1.9692 C   0  0  0  0  0  0  0  0  0  0  0  0
   -0.6771   -2.4146   -1.5745 H   0  0  0  0  0  0  0  0  0  0  0  0
   -1.8610    1.8104   -0.5236 C   0  0  0  0  0  0  0  0  0  0  0  0
   -2.1870    2.7401    0.4828 C   0  0  0  0  0  0  0  0  0  0  0  0
   -2.2177    2.4342    1.5371 H   0  0  0  0  0  0  0  0  0  0  0  0
   -2.4551    4.0798    0.1622 C   0  0  0  0  0  0  0  0  0  0  0  0
   -2.7109    4.7893    0.9636 H   0  0  0  0  0  0  0  0  0  0  0  0
   -2.3894    4.5121   -1.1705 C   0  0  0  0  0  0  0  0  0  0  0  0
   -2.5985    5.5630   -1.4221 H   0  0  0  0  0  0  0  0  0  0  0  0
   -2.0436    3.5979   -2.1787 C   0  0  0  0  0  0  0  0  0  0  0  0
   -1.9725    3.9302   -3.2255 H   0  0  0  0  0  0  0  0  0  0  0  0
   -1.7778    2.2588   -1.8617 C   0  0  0  0  0  0  0  0  0  0  0  0
   -1.4751    1.5530   -2.6481 H   0  0  0  0  0  0  0  0  0  0  0  0
   -2.2892   -0.3755    1.4369 C   0  0  1  0  0  0  0  0  0  0  0  0
   -2.0641    0.4675    2.1217 H   0  0  0  0  0  0  0  0  0  0  0  0
   -3.7853   -0.4704    1.2276 C   0  0  0  0  0  0  0  0  0  0  0  0
   -4.3708   -1.6553    0.7293 C   0  0  0  0  0  0  0  0  0  0  0  0
   -3.7351   -2.5182    0.4844 H   0  0  0  0  0  0  0  0  0  0  0  0
   -5.7522   -1.7414    0.5112 C   0  0  0  0  0  0  0  0  0  0  0  0
   -6.1808   -2.6740    0.1144 H   0  0  0  0  0  0  0  0  0  0  0  0
   -6.5816   -0.6424    0.7827 C   0  0  0  0  0  0  0  0  0  0  0  0
   -7.6661   -0.7076    0.6069 H   0  0  0  0  0  0  0  0  0  0  0  0
   -6.0161    0.5388    1.2867 C   0  0  0  0  0  0  0  0  0  0  0  0
   -6.6554    1.4053    1.5147 H   0  0  0  0  0  0  0  0  0  0  0  0
   -4.6336    0.6203    1.5105 C   0  0  0  0  0  0  0  0  0  0  0  0
   -4.2082    1.5497    1.9145 H   0  0  0  0  0  0  0  0  0  0  0  0
   -1.7150   -1.6610    2.0498 C   0  0  0  0  0  0  0  0  0  0  0  0
   -2.4100   -2.0602    2.8162 H   0  0  0  0  0  0  0  0  0  0  0  0
   -1.5938   -2.4651    1.2910 H   0  0  0  0  0  0  0  0  0  0  0  0
   -0.3503   -1.5350    2.6765 C   0  0  1  0  0  3  0  0  0  0  0  0
    1.2467   -2.7157    3.9429 C   0  0  0  0  0  0  0  0  0  0  0  0
    1.8856   -2.9376    3.0638 H   0  0  0  0  0  0  0  0  0  0  0  0
    1.2434   -3.5688    4.6438 H   0  0  0  0  0  0  0  0  0  0  0  0
    1.6059   -1.7988    4.4512 H   0  0  0  0  0  0  0  0  0  0  0  0
    0.4580   -0.6224    2.4943 O   0  0  0  0  0  1  0  0  0  0  0  0
   -0.1088   -2.5632    3.4995 O   0  0  0  0  0  0  0  0  0  0  0  0
   -1.3369    0.0808   -0.1607 P   0  0  0  0  0  0  0  0  0  0  0  0
  1 46  1  0  0  0  0
  2  3  1  0  0  0  0
  2  1  1  0  0  0  0
  4  2  2  0  0  0  0
  5  4  1  0  0  0  0
  6  4  1  0  0  0  0
  6  8  2  0  0  0  0
  7  6  1  0  0  0  0
  8 10  1  0  0  0  0
  9  8  1  0  0  0  0
 10 11  1  0  0  0  0
 10  1  2  0  0  0  0
 12 46  1  0  0  0  0
 12 13  1  0  0  0  0
 13 14  1  0  0  0  0
 15 13  2  0  0  0  0
 15 16  1  0  0  0  0
 17 15  1  0  0  0  0
 18 17  1  0  0  0  0
 19 21  1  0  0  0  0
 19 17  2  0  0  0  0
 20 19  1  0  0  0  0
 21 12  2  0  0  0  0
 22 21  1  0  0  0  0
 23 36  1  0  0  0  0
 23 24  1  1  0  0  0
 25 23  1  0  0  0  0
 25 34  1  0  0  0  0
 26 25  2  0  0  0  0
 27 26  1  0  0  0  0
 28 26  1  0  0  0  0
 28 30  2  0  0  0  0
 29 28  1  0  0  0  0
 30 32  1  0  0  0  0
 31 30  1  0  0  0  0
 32 34  2  0  0  0  0
 32 33  1  0  0  0  0
 34 35  1  0  0  0  0
 36 39  1  0  0  0  0
 36 37  1  0  0  0  0
 38 36  1  0  0  0  0
 39 44  1  1  0  0  0
 39 45  1  0  0  0  0
 40 43  1  0  0  0  0
 40 42  1  0  0  0  0
 41 40  1  0  0  0  0
 45 40  1  0  0  0  0
 46 23  1  0  0  0  0
M  END
