1,2
q = -1.0, confidence = 0.002

 40 41  0  0  0  0  0  0  0  0999 V2000
   -2.0848    0.2346   -0.6574 P   0  0  0  0  0  0  0  0  0  0  0  0
    0.4241   -0.4225   -1.8073 O   0  5  0  0  0  0  0  0  0  0  0  0
   -1.8800   -0.1566   -2.3888 C   0  0  0  0  0  0  0  0  0  0  0  0
   -2.6672   -0.1602   -3.1560 H   0  0  0  0  0  0  0  0  0  0  0  0
   -0.5616   -0.4339   -2.6762 C   0  0  0  0  0  0  0  0  0  0  0  0
   -0.2481   -0.6929   -3.7124 H   0  0  0  0  0  0  0  0  0  0  0  0
   -3.2752   -0.9443    0.1430 C   0  0  0  0  0  0  0  0  0  0  0  0
   -3.3520   -0.5886    1.1952 H   0  0  0  0  0  0  0  0  0  0  0  0
   -2.6509   -2.3516    0.1628 C   0  0  0  0  0  0  0  0  0  0  0  0
   -2.4304   -2.6596   -0.8840 H   0  0  0  0  0  0  0  0  0  0  0  0
   -1.6745   -2.3090    0.6901 H   0  0  0  0  0  0  0  0  0  0  0  0
   -3.5858   -3.3743    0.8207 C   0  0  0  0  0  0  0  0  0  0  0  0
   -3.6975   -3.1242    1.8998 H   0  0  0  0  0  0  0  0  0  0  0  0
   -3.1297   -4.3859    0.7804 H   0  0  0  0  0  0  0  0  0  0  0  0
   -4.9701   -3.3803    0.1594 C   0  0  0  0  0  0  0  0  0  0  0  0
   -4.8701   -3.7301   -0.8930 H   0  0  0  0  0  0  0  0  0  0  0  0
   -5.6410   -4.1046    0.6673 H   0  0  0  0  0  0  0  0  0  0  0  0
   -5.5941   -1.9790    0.1646 C   0  0  0  0  0  0  0  0  0  0  0  0
   -6.5815   -1.9887   -0.3435 H   0  0  0  0  0  0  0  0  0  0  0  0
   -5.7859   -1.6680    1.2163 H   0  0  0  0  0  0  0  0  0  0  0  0
   -4.6703   -0.9482   -0.5019 C   0  0  0  0  0  0  0  0  0  0  0  0
   -5.1254    0.0636   -0.4532 H   0  0  0  0  0  0  0  0  0  0  0  0
   -4.5625   -1.1960   -1.5817 H   0  0  0  0  0  0  0  0  0  0  0  0
   -2.8025    1.9438   -0.4844 C   0  0  0  0  0  0  0  0  0  0  0  0
   -3.7091    1.9947   -1.1316 H   0  0  0  0  0  0  0  0  0  0  0  0
   -3.1913    2.2552    0.9725 C   0  0  0  0  0  0  0  0  0  0  0  0
   -3.9983    1.5730    1.3121 H   0  0  0  0  0  0  0  0  0  0  0  0
   -2.3114    2.0497    1.6212 H   0  0  0  0  0  0  0  0  0  0  0  0
   -3.6451    3.7133    1.1348 C   0  0  0  0  0  0  0  0  0  0  0  0
   -4.5942    3.8656    0.5720 H   0  0  0  0  0  0  0  0  0  0  0  0
   -3.8792    3.9173    2.2009 H   0  0  0  0  0  0  0  0  0  0  0  0
   -2.5924    4.7004    0.6162 C   0  0  0  0  0  0  0  0  0  0  0  0
   -1.6763    4.6181    1.2434 H   0  0  0  0  0  0  0  0  0  0  0  0
   -2.9540    5.7449    0.7217 H   0  0  0  0  0  0  0  0  0  0  0  0
   -2.2268    4.3996   -0.8425 C   0  0  0  0  0  0  0  0  0  0  0  0
   -1.4379    5.0944   -1.1999 H   0  0  0  0  0  0  0  0  0  0  0  0
   -3.1161    4.5761   -1.4891 H   0  0  0  0  0  0  0  0  0  0  0  0
   -1.7584    2.9496   -1.0079 C   0  0  0  0  0  0  0  0  0  0  0  0
   -1.5151    2.7233   -2.0668 H   0  0  0  0  0  0  0  0  0  0  0  0
   -0.8177    2.7944   -0.4315 H   0  0  0  0  0  0  0  0  0  0  0  0
  1 24  1  0  0  0  0
  1  7  1  0  0  0  0
  3  1  1  0  0  0  0
  4  3  1  0  0  0  0
  5  3  2  0  0  0  0
  5  2  1  0  0  0  0
  6  5  1  0  0  0  0
  7  9  1  0  0  0  0
  7  8  1  0  0  0  0
  9 11  1  0  0  0  0
  9 12  1  0  0  0  0
 10  9  1  0  0  0  0
 12 13  1  0  0  0  0
 14 12  1  0  0  0  0
 15 18  1  0  0  0  0
 15 17  1  0  0  0  0
 15 12  1  0  0  0  0
 16 15  1  0  0  0  0
 18 20  1  0  0  0  0
 19 18  1  0  0  0  0
 21 22  1  0  0  0  0
 21  7  1  0  0  0  0
 21 18  1  0  0  0  0
 23 21  1  0  0  0  0
 24 26  1  0  0  0  0
 25 24  1  0  0  0  0
 26 29  1  0  0  0  0
 26 27  1  0  0  0  0
 26 28  1  0  0  0  0
 29 31  1  0  0  0  0
 30 29  1  0  0  0  0
 32 34  1  0  0  0  0
 32 29  1  0  0  0  0
 32 33  1  0  0  0  0
 35 32  1  0  0  0  0
 36 35  1  0  0  0  0
 37 35  1  0  0  0  0
 38 35  1  0  0  0  0
 38 24  1  0  0  0  0
 38 40  1  0  0  0  0
 39 38  1  0  0  0  0
M  CHG  1   2  -1
M  END
