1,2
q = 0.0, confidence = 1.0

 40 42  0  0  1  0  0  0  0  0999 V2000
    1.4529    0.6926   -0.1114 P   0  0  2  0  0  0  0  0  0  0  0  0
    1.7150   -2.4461    0.1853 O   0  0  0  0  0  1  0  0  0  0  0  0
    1.1714    3.5240    0.0912 C   0  0  0  0  0  0  0  0  0  0  0  0
    0.6860    4.6754    0.7276 C   0  0  0  0  0  0  0  0  0  0  0  0
   -0.0426    4.5690    1.9229 C   0  0  0  0  0  0  0  0  0  0  0  0
   -0.2978    3.3060    2.4812 C   0  0  0  0  0  0  0  0  0  0  0  0
    0.1718    2.1503    1.8436 C   0  0  0  0  0  0  0  0  0  0  0  0
    0.9208    2.2552    0.6520 C   0  0  0  0  0  0  0  0  0  0  0  0
    3.1425    0.2172    0.5773 C   0  0  2  0  0  0  0  0  0  0  0  0
    3.9906    1.4137    0.1696 C   0  0  0  0  0  0  0  0  0  0  0  0
    3.6485    1.8297   -1.0848 C   0  0  0  0  0  0  0  0  0  0  0  0
    2.5138    0.9719   -1.6350 C   0  0  1  0  0  0  0  0  0  0  0  0
    3.0487   -0.4827   -1.8210 C   0  0  0  0  0  0  0  0  0  0  0  0
    3.5298   -0.9569   -0.4016 C   0  0  2  0  0  0  0  0  0  0  0  0
    5.0615    1.9287    1.0740 C   0  0  0  0  0  0  0  0  0  0  0  0
    4.2858    2.8879   -1.9255 C   0  0  0  0  0  0  0  0  0  0  0  0
    2.9363   -2.2874    0.0174 C   0  0  1  0  0  3  0  0  0  0  0  0
    3.8778   -3.4364    0.2486 C   0  0  0  0  0  0  0  0  0  0  0  0
    3.2208   -4.7524    0.6403 C   0  0  0  0  0  0  0  0  0  0  0  0
    1.7358    3.6186   -0.8462 H   0  0  0  0  0  0  0  0  0  0  0  0
    0.8770    5.6637    0.2836 H   0  0  0  0  0  0  0  0  0  0  0  0
   -0.4221    5.4755    2.4175 H   0  0  0  0  0  0  0  0  0  0  0  0
   -0.8784    3.2192    3.4115 H   0  0  0  0  0  0  0  0  0  0  0  0
   -0.0615    1.1570    2.2586 H   0  0  0  0  0  0  0  0  0  0  0  0
    3.1802   -0.0541    1.6478 H   0  0  0  0  0  0  0  0  0  0  0  0
    2.0004    1.3649   -2.5313 H   0  0  0  0  0  0  0  0  0  0  0  0
    2.2517   -1.1422   -2.2211 H   0  0  0  0  0  0  0  0  0  0  0  0
    3.8886   -0.4902   -2.5416 H   0  0  0  0  0  0  0  0  0  0  0  0
    4.6327   -1.0536   -0.3892 H   0  0  0  0  0  0  0  0  0  0  0  0
    5.7998    1.1363    1.3242 H   0  0  0  0  0  0  0  0  0  0  0  0
    5.6137    2.7770    0.6284 H   0  0  0  0  0  0  0  0  0  0  0  0
    4.6278    2.2708    2.0381 H   0  0  0  0  0  0  0  0  0  0  0  0
    4.7319    2.4506   -2.8450 H   0  0  0  0  0  0  0  0  0  0  0  0
    3.5416    3.6368   -2.2728 H   0  0  0  0  0  0  0  0  0  0  0  0
    5.0859    3.4277   -1.3855 H   0  0  0  0  0  0  0  0  0  0  0  0
    4.6118   -3.0914    1.0147 H   0  0  0  0  0  0  0  0  0  0  0  0
    4.4965   -3.5326   -0.6743 H   0  0  0  0  0  0  0  0  0  0  0  0
    3.9842   -5.5363    0.8029 H   0  0  0  0  0  0  0  0  0  0  0  0
    2.5310   -5.1056   -0.1512 H   0  0  0  0  0  0  0  0  0  0  0  0
    2.6329   -4.6443    1.5724 H   0  0  0  0  0  0  0  0  0  0  0  0
  1  9  1  0  0  0  0
  1  8  1  1  0  0  0
  3  8  2  0  0  0  0
  3  4  1  0  0  0  0
  4  5  2  0  0  0  0
  5 22  1  0  0  0  0
  5  6  1  0  0  0  0
  6 23  1  0  0  0  0
  7 24  1  0  0  0  0
  7  6  2  0  0  0  0
  8  7  1  0  0  0  0
  9 25  1  1  0  0  0
 10  9  1  0  0  0  0
 10 15  1  0  0  0  0
 11 10  2  0  0  0  0
 12 26  1  6  0  0  0
 12 11  1  0  0  0  0
 12  1  1  0  0  0  0
 13 12  1  0  0  0  0
 13 14  1  0  0  0  0
 14 29  1  6  0  0  0
 14 17  1  0  0  0  0
 14  9  1  0  0  0  0
 15 30  1  0  0  0  0
 15 32  1  0  0  0  0
 16 35  1  0  0  0  0
 16 11  1  0  0  0  0
 17  2  1  1  0  0  0
 17 18  1  0  0  0  0
 18 19  1  0  0  0  0
 18 36  1  0  0  0  0
 19 38  1  0  0  0  0
 19 40  1  0  0  0  0
 20  3  1  0  0  0  0
 21  4  1  0  0  0  0
 27 13  1  0  0  0  0
 28 13  1  0  0  0  0
 31 15  1  0  0  0  0
 33 16  1  0  0  0  0
 34 16  1  0  0  0  0
 37 18  1  0  0  0  0
 39 19  1  0  0  0  0
M  END
