1,3
q = 0.0, confidence = 0.992

 50 53  0  0  0  0  0  0  0  0999 V2000
    0.5815    0.5493    1.1105 P   0  0  0  0  0  0  0  0  0  0  0  0
   -2.1629   -0.3615    0.0627 P   0  0  0  0  0  4  0  0  0  0  0  0
   -1.2868   -0.7781   -1.1284 O   0  0  0  0  0  1  0  0  0  0  0  0
    1.4740    0.2720    2.7056 C   0  0  0  0  0  0  0  0  0  0  0  0
    2.5287   -0.6480    2.8393 C   0  0  0  0  0  0  0  0  0  0  0  0
    2.8588   -1.2311    1.9713 H   0  0  0  0  0  0  0  0  0  0  0  0
    3.1494   -0.8248    4.0854 C   0  0  0  0  0  0  0  0  0  0  0  0
    3.9757   -1.5457    4.1784 H   0  0  0  0  0  0  0  0  0  0  0  0
    2.7238   -0.0912    5.2027 C   0  0  0  0  0  0  0  0  0  0  0  0
    3.2144   -0.2341    6.1777 H   0  0  0  0  0  0  0  0  0  0  0  0
    1.6749    0.8336    5.0719 C   0  0  0  0  0  0  0  0  0  0  0  0
    1.3415    1.4216    5.9406 H   0  0  0  0  0  0  0  0  0  0  0  0
    1.0567    1.0202    3.8280 C   0  0  0  0  0  0  0  0  0  0  0  0
    0.2558    1.7691    3.7259 H   0  0  0  0  0  0  0  0  0  0  0  0
    0.5000    2.3849    1.0921 C   0  0  0  0  0  0  0  0  0  0  0  0
   -0.6892    3.1185    1.2473 C   0  0  0  0  0  0  0  0  0  0  0  0
   -1.6547    2.6130    1.3729 H   0  0  0  0  0  0  0  0  0  0  0  0
   -0.6592    4.5226    1.2231 C   0  0  0  0  0  0  0  0  0  0  0  0
   -1.5995    5.0836    1.3360 H   0  0  0  0  0  0  0  0  0  0  0  0
    0.5567    5.1988    1.0525 C   0  0  0  0  0  0  0  0  0  0  0  0
    0.5788    6.2991    1.0331 H   0  0  0  0  0  0  0  0  0  0  0  0
    1.7471    4.4667    0.9033 C   0  0  0  0  0  0  0  0  0  0  0  0
    2.7044    4.9910    0.7632 H   0  0  0  0  0  0  0  0  0  0  0  0
    1.7243    3.0673    0.9172 C   0  0  0  0  0  0  0  0  0  0  0  0
    2.6500    2.4879    0.7821 H   0  0  0  0  0  0  0  0  0  0  0  0
   -3.0717    1.1868   -0.2448 C   0  0  0  0  0  0  0  0  0  0  0  0
   -3.9697    1.7337    0.6977 C   0  0  0  0  0  0  0  0  0  0  0  0
   -4.2117    1.1849    1.6220 H   0  0  0  0  0  0  0  0  0  0  0  0
   -4.5477    2.9887    0.4612 C   0  0  0  0  0  0  0  0  0  0  0  0
   -5.2477    3.4174    1.1943 H   0  0  0  0  0  0  0  0  0  0  0  0
   -4.2257    3.7005   -0.7086 C   0  0  0  0  0  0  0  0  0  0  0  0
   -4.6728    4.6904   -0.8869 H   0  0  0  0  0  0  0  0  0  0  0  0
   -3.3337    3.1546   -1.6437 C   0  0  0  0  0  0  0  0  0  0  0  0
   -3.0690    3.7171   -2.5515 H   0  0  0  0  0  0  0  0  0  0  0  0
   -2.7559    1.8954   -1.4184 C   0  0  0  0  0  0  0  0  0  0  0  0
   -2.0235    1.4705   -2.1230 H   0  0  0  0  0  0  0  0  0  0  0  0
   -3.3822   -1.6381    0.5311 C   0  0  0  0  0  0  0  0  0  0  0  0
   -4.7664   -1.4692    0.3245 C   0  0  0  0  0  0  0  0  0  0  0  0
   -5.1539   -0.5222   -0.0790 H   0  0  0  0  0  0  0  0  0  0  0  0
   -5.6536   -2.5139    0.6262 C   0  0  0  0  0  0  0  0  0  0  0  0
   -6.7334   -2.3756    0.4646 H   0  0  0  0  0  0  0  0  0  0  0  0
   -5.1654   -3.7310    1.1259 C   0  0  0  0  0  0  0  0  0  0  0  0
   -5.8637   -4.5482    1.3628 H   0  0  0  0  0  0  0  0  0  0  0  0
   -3.7844   -3.9095    1.3126 C   0  0  0  0  0  0  0  0  0  0  0  0
   -3.3955   -4.8681    1.6883 H   0  0  0  0  0  0  0  0  0  0  0  0
   -2.8920   -2.8720    1.0123 C   0  0  0  0  0  0  0  0  0  0  0  0
   -1.8052   -3.0306    1.1231 H   0  0  0  0  0  0  0  0  0  0  0  0
   -1.1294   -0.0587    1.5624 C   0  0  0  0  0  0  0  0  0  0  0  0
   -0.9394   -1.0467    2.0302 H   0  0  0  0  0  0  0  0  0  0  0  0
   -1.6412    0.5894    2.3013 H   0  0  0  0  0  0  0  0  0  0  0  0
  1 48  1  0  0  0  0
  1  4  1  0  0  0  0
  2 37  1  0  0  0  0
  2 48  1  0  0  0  0
  3  2  1  0  0  0  0
  4  5  2  0  0  0  0
  4 13  1  0  0  0  0
  5  7  1  0  0  0  0
  6  5  1  0  0  0  0
  7  8  1  0  0  0  0
  7  9  2  0  0  0  0
  9 10  1  0  0  0  0
 11  9  1  0  0  0  0
 11 12  1  0  0  0  0
 13 11  2  0  0  0  0
 14 13  1  0  0  0  0
 15  1  1  0  0  0  0
 15 16  1  0  0  0  0
 16 17  1  0  0  0  0
 18 16  2  0  0  0  0
 18 19  1  0  0  0  0
 20 18  1  0  0  0  0
 21 20  1  0  0  0  0
 22 24  1  0  0  0  0
 22 20  2  0  0  0  0
 23 22  1  0  0  0  0
 24 15  2  0  0  0  0
 25 24  1  0  0  0  0
 26  2  1  0  0  0  0
 26 27  1  0  0  0  0
 27 28  1  0  0  0  0
 29 27  2  0  0  0  0
 29 30  1  0  0  0  0
 31 29  1  0  0  0  0
 32 31  1  0  0  0  0
 33 35  1  0  0  0  0
 33 31  2  0  0  0  0
 34 33  1  0  0  0  0
 35 26  2  0  0  0  0
 36 35  1  0  0  0  0
 37 46  1  0  0  0  0
 38 37  2  0  0  0  0
 38 40  1  0  0  0  0
 39 38  1  0  0  0  0
 40 42  2  0  0  0  0
 41 40  1  0  0  0  0
 42 44  1  0  0  0  0
 42 43  1  0  0  0  0
 44 45  1  0  0  0  0
 46 47  1  0  0  0  0
 46 44  2  0  0  0  0
 48 49  1  0  0  0  0
 48 50  1  0  0  0  0
M  END
