2,3
q = 0.0, confidence = 1.0

 41 43  0  0  1  0  0  0  0  0999 V2000
   -2.9912    0.5866    0.2684 N   0  0  0  0  0  0  0  0  0  0  0  0
   -1.4442    2.1832   -0.3277 O   0  0  0  0  0  1  0  0  0  0  0  0
   -1.7298   -0.6425   -0.1532 P   0  0  0  0  0  0  0  0  0  0  0  0
   -4.3320    0.1946    0.6853 C   0  0  0  0  0  0  0  0  0  0  0  0
   -4.8011    1.0055    1.2726 H   0  0  0  0  0  0  0  0  0  0  0  0
   -4.2641   -0.7035    1.3288 H   0  0  0  0  0  0  0  0  0  0  0  0
   -4.9823   -0.0483   -0.1813 H   0  0  0  0  0  0  0  0  0  0  0  0
   -2.6061    1.8804    0.0478 C   0  0  2  0  0  3  0  0  0  0  0  0
   -3.5544    3.0078    0.2988 C   0  0  0  0  0  0  0  0  0  0  0  0
   -4.7975    3.1253   -0.3534 C   0  0  0  0  0  0  0  0  0  0  0  0
   -5.1206    2.3524   -1.0666 H   0  0  0  0  0  0  0  0  0  0  0  0
   -5.6071    4.2458   -0.1166 C   0  0  0  0  0  0  0  0  0  0  0  0
   -6.5706    4.3438   -0.6393 H   0  0  0  0  0  0  0  0  0  0  0  0
   -5.1875    5.2413    0.7803 C   0  0  0  0  0  0  0  0  0  0  0  0
   -5.8283    6.1161    0.9689 H   0  0  0  0  0  0  0  0  0  0  0  0
   -3.9477    5.1243    1.4310 C   0  0  0  0  0  0  0  0  0  0  0  0
   -3.6166    5.9056    2.1318 H   0  0  0  0  0  0  0  0  0  0  0  0
   -3.1248    4.0180    1.1842 C   0  0  0  0  0  0  0  0  0  0  0  0
   -2.1452    3.9061    1.6730 H   0  0  0  0  0  0  0  0  0  0  0  0
   -2.6364   -1.4824   -1.5355 C   0  0  0  0  0  0  0  0  0  0  0  0
   -3.6797   -2.4053   -1.2925 C   0  0  0  0  0  0  0  0  0  0  0  0
   -3.9198   -2.7133   -0.2645 H   0  0  0  0  0  0  0  0  0  0  0  0
   -4.4118   -2.9437   -2.3607 C   0  0  0  0  0  0  0  0  0  0  0  0
   -5.2207   -3.6627   -2.1588 H   0  0  0  0  0  0  0  0  0  0  0  0
   -4.1131   -2.5689   -3.6810 C   0  0  0  0  0  0  0  0  0  0  0  0
   -4.6863   -2.9965   -4.5182 H   0  0  0  0  0  0  0  0  0  0  0  0
   -3.0842   -1.6469   -3.9262 C   0  0  0  0  0  0  0  0  0  0  0  0
   -2.8457   -1.3450   -4.9577 H   0  0  0  0  0  0  0  0  0  0  0  0
   -2.3496   -1.0991   -2.8625 C   0  0  0  0  0  0  0  0  0  0  0  0
   -1.5408   -0.3706   -3.0507 H   0  0  0  0  0  0  0  0  0  0  0  0
   -1.8393   -1.8789    1.2013 C   0  0  0  0  0  0  0  0  0  0  0  0
   -2.0146   -1.4780    2.5425 C   0  0  0  0  0  0  0  0  0  0  0  0
   -2.1298   -0.4102    2.7751 H   0  0  0  0  0  0  0  0  0  0  0  0
   -1.9902   -2.4354    3.5672 C   0  0  0  0  0  0  0  0  0  0  0  0
   -2.1253   -2.1138    4.6109 H   0  0  0  0  0  0  0  0  0  0  0  0
   -1.7827   -3.7915    3.2697 C   0  0  0  0  0  0  0  0  0  0  0  0
   -1.7676   -4.5380    4.0785 H   0  0  0  0  0  0  0  0  0  0  0  0
   -1.5811   -4.1911    1.9393 C   0  0  0  0  0  0  0  0  0  0  0  0
   -1.4022   -5.2503    1.6990 H   0  0  0  0  0  0  0  0  0  0  0  0
   -1.6015   -3.2396    0.9088 C   0  0  0  0  0  0  0  0  0  0  0  0
   -1.4324   -3.5589   -0.1311 H   0  0  0  0  0  0  0  0  0  0  0  0
  1  4  1  0  0  0  0
  3  1  1  0  0  0  0
  3 31  1  0  0  0  0
  4  5  1  0  0  0  0
  4  6  1  0  0  0  0
  7  4  1  0  0  0  0
  8  2  1  1  0  0  0
  8  1  1  0  0  0  0
  8  9  1  0  0  0  0
  9 18  1  0  0  0  0
 10 12  1  0  0  0  0
 10  9  2  0  0  0  0
 11 10  1  0  0  0  0
 12 14  2  0  0  0  0
 13 12  1  0  0  0  0
 14 15  1  0  0  0  0
 14 16  1  0  0  0  0
 16 17  1  0  0  0  0
 18 16  2  0  0  0  0
 18 19  1  0  0  0  0
 20 21  1  0  0  0  0
 20  3  1  0  0  0  0
 21 22  1  0  0  0  0
 23 24  1  0  0  0  0
 23 21  2  0  0  0  0
 25 23  1  0  0  0  0
 26 25  1  0  0  0  0
 27 25  2  0  0  0  0
 27 29  1  0  0  0  0
 28 27  1  0  0  0  0
 29 20  2  0  0  0  0
 30 29  1  0  0  0  0
 31 32  1  0  0  0  0
 32 33  1  0  0  0  0
 32 34  2  0  0  0  0
 34 35  1  0  0  0  0
 36 34  1  0  0  0  0
 36 37  1  0  0  0  0
 38 36  2  0  0  0  0
 39 38  1  0  0  0  0
 40 31  2  0  0  0  0
 40 38  1  0  0  0  0
 41 40  1  0  0  0  0
M  END
