1,2
q = 0.0, confidence = 1.0

 39 41  0  0  1  0  0  0  0  0999 V2000
   -2.4219   -0.5459   -0.0513 P   0  0  0  0  0  0  0  0  0  0  0  0
   -0.3667    1.4557   -0.1611 O   0  0  0  0  0  1  0  0  0  0  0  0
   -2.6340    1.1368   -0.8563 C   0  0  0  0  0  0  0  0  0  0  0  0
   -1.4424    2.0045   -0.5250 C   0  0  2  0  0  3  0  0  0  0  0  0
   -3.2806   -0.4034    1.5540 C   0  0  0  0  0  0  0  0  0  0  0  0
   -4.5989    0.0947    1.6502 C   0  0  0  0  0  0  0  0  0  0  0  0
   -5.2158    0.2000    2.9043 C   0  0  0  0  0  0  0  0  0  0  0  0
   -4.5246   -0.1889    4.0647 C   0  0  0  0  0  0  0  0  0  0  0  0
   -3.2144   -0.6831    3.9728 C   0  0  0  0  0  0  0  0  0  0  0  0
   -2.5900   -0.7903    2.7209 C   0  0  0  0  0  0  0  0  0  0  0  0
   -3.3821   -1.6911   -1.1014 C   0  0  0  0  0  0  0  0  0  0  0  0
   -4.5046   -2.3978   -0.6275 C   0  0  0  0  0  0  0  0  0  0  0  0
   -5.1674   -3.2999   -1.4748 C   0  0  0  0  0  0  0  0  0  0  0  0
   -4.7165   -3.5002   -2.7879 C   0  0  0  0  0  0  0  0  0  0  0  0
   -3.5877   -2.8067   -3.2576 C   0  0  0  0  0  0  0  0  0  0  0  0
   -2.9146   -1.9127   -2.4157 C   0  0  0  0  0  0  0  0  0  0  0  0
   -1.4864    3.4639   -0.6663 C   0  0  0  0  0  0  0  0  0  0  0  0
   -0.3005    4.2007   -0.4159 C   0  0  0  0  0  0  0  0  0  0  0  0
   -0.2948    5.5889   -0.5577 C   0  0  0  0  0  0  0  0  0  0  0  0
   -1.4663    6.2622   -0.9505 C   0  0  0  0  0  0  0  0  0  0  0  0
   -2.6465    5.5419   -1.2050 C   0  0  0  0  0  0  0  0  0  0  0  0
   -2.6602    4.1504   -1.0662 C   0  0  0  0  0  0  0  0  0  0  0  0
   -3.6026    1.6067   -0.6002 H   0  0  0  0  0  0  0  0  0  0  0  0
   -2.6383    0.9640   -1.9552 H   0  0  0  0  0  0  0  0  0  0  0  0
   -5.1540    0.3914    0.7462 H   0  0  0  0  0  0  0  0  0  0  0  0
   -6.2433    0.5865    2.9773 H   0  0  0  0  0  0  0  0  0  0  0  0
   -5.0127   -0.1041    5.0470 H   0  0  0  0  0  0  0  0  0  0  0  0
   -2.6727   -0.9854    4.8813 H   0  0  0  0  0  0  0  0  0  0  0  0
   -1.5577   -1.1664    2.6351 H   0  0  0  0  0  0  0  0  0  0  0  0
   -4.8591   -2.2519    0.4031 H   0  0  0  0  0  0  0  0  0  0  0  0
   -6.0426   -3.8521   -1.1013 H   0  0  0  0  0  0  0  0  0  0  0  0
   -5.2398   -4.2083   -3.4475 H   0  0  0  0  0  0  0  0  0  0  0  0
   -3.2229   -2.9740   -4.2818 H   0  0  0  0  0  0  0  0  0  0  0  0
   -2.0073   -1.3977   -2.7729 H   0  0  0  0  0  0  0  0  0  0  0  0
    0.6067    3.6602   -0.1139 H   0  0  0  0  0  0  0  0  0  0  0  0
    0.6294    6.1532   -0.3636 H   0  0  0  0  0  0  0  0  0  0  0  0
   -1.4601    7.3571   -1.0614 H   0  0  0  0  0  0  0  0  0  0  0  0
   -3.5597    6.0708   -1.5142 H   0  0  0  0  0  0  0  0  0  0  0  0
   -3.5886    3.5996   -1.2733 H   0  0  0  0  0  0  0  0  0  0  0  0
  1  5  1  0  0  0  0
  3 23  1  0  0  0  0
  3  4  1  0  0  0  0
  3  1  1  0  0  0  0
  4  2  1  6  0  0  0
  5  6  2  0  0  0  0
  5 10  1  0  0  0  0
  6  7  1  0  0  0  0
  7 26  1  0  0  0  0
  7  8  2  0  0  0  0
  8 27  1  0  0  0  0
  9  8  1  0  0  0  0
  9 28  1  0  0  0  0
 10  9  2  0  0  0  0
 11 12  1  0  0  0  0
 11  1  1  0  0  0  0
 12 30  1  0  0  0  0
 13 31  1  0  0  0  0
 13 12  2  0  0  0  0
 14 13  1  0  0  0  0
 15 14  2  0  0  0  0
 15 16  1  0  0  0  0
 16 11  2  0  0  0  0
 17  4  1  0  0  0  0
 17 18  1  0  0  0  0
 18 35  1  0  0  0  0
 19 18  2  0  0  0  0
 19 36  1  0  0  0  0
 20 19  1  0  0  0  0
 21 22  1  0  0  0  0
 21 20  2  0  0  0  0
 22 17  2  0  0  0  0
 24  3  1  0  0  0  0
 25  6  1  0  0  0  0
 29 10  1  0  0  0  0
 32 14  1  0  0  0  0
 33 15  1  0  0  0  0
 34 16  1  0  0  0  0
 37 20  1  0  0  0  0
 38 21  1  0  0  0  0
 39 22  1  0  0  0  0
M  END
