1,3
 OpenBabel05122313063D

 54 56  0  0  1  0  0  0  0  0999 V2000
   -0.0128   -0.8753   -0.1860 P   0  0  0  0  0  0  0  0  0  0  0  0
    0.6509    1.9881   -0.2013 P   0  0  0  0  0  4  0  0  0  0  0  0
    1.0203    1.7797    1.2554 O   0  0  0  0  0  1  0  0  0  0  0  0
    1.8559    1.7747   -1.2765 O   0  0  0  0  0  0  0  0  0  0  0  0
    0.1045    3.5049   -0.3968 O   0  0  0  0  0  0  0  0  0  0  0  0
   -0.6110    0.8224   -0.8368 C   0  0  2  0  0  0  0  0  0  0  0  0
   -0.5729    0.8293   -1.9437 H   0  0  0  0  0  0  0  0  0  0  0  0
   -2.0053    1.1294   -0.3445 C   0  0  0  0  0  0  0  0  0  0  0  0
   -3.0984    0.9520   -1.2170 C   0  0  0  0  0  0  0  0  0  0  0  0
   -2.9159    0.6397   -2.2574 H   0  0  0  0  0  0  0  0  0  0  0  0
   -4.4114    1.1427   -0.7649 C   0  0  0  0  0  0  0  0  0  0  0  0
   -5.2540    0.9923   -1.4566 H   0  0  0  0  0  0  0  0  0  0  0  0
   -4.6482    1.5179    0.5672 C   0  0  0  0  0  0  0  0  0  0  0  0
   -5.6785    1.6663    0.9242 H   0  0  0  0  0  0  0  0  0  0  0  0
   -3.5650    1.7019    1.4405 C   0  0  0  0  0  0  0  0  0  0  0  0
   -3.7410    1.9960    2.4861 H   0  0  0  0  0  0  0  0  0  0  0  0
   -2.2501    1.5050    0.9940 C   0  0  0  0  0  0  0  0  0  0  0  0
   -1.4066    1.6324    1.6902 H   0  0  0  0  0  0  0  0  0  0  0  0
    1.0862   -1.5128   -1.5174 C   0  0  0  0  0  0  0  0  0  0  0  0
    0.8951   -1.2426   -2.8880 C   0  0  0  0  0  0  0  0  0  0  0  0
    0.0502   -0.6227   -3.2252 H   0  0  0  0  0  0  0  0  0  0  0  0
    1.7858   -1.7551   -3.8430 C   0  0  0  0  0  0  0  0  0  0  0  0
    1.6314   -1.5307   -4.9094 H   0  0  0  0  0  0  0  0  0  0  0  0
    2.8716   -2.5483   -3.4392 C   0  0  0  0  0  0  0  0  0  0  0  0
    3.5710   -2.9474   -4.1894 H   0  0  0  0  0  0  0  0  0  0  0  0
    3.0668   -2.8231   -2.0763 C   0  0  0  0  0  0  0  0  0  0  0  0
    3.9209   -3.4366   -1.7522 H   0  0  0  0  0  0  0  0  0  0  0  0
    2.1844   -2.3029   -1.1185 C   0  0  0  0  0  0  0  0  0  0  0  0
    2.3538   -2.4844   -0.0462 H   0  0  0  0  0  0  0  0  0  0  0  0
   -1.5411   -1.8881   -0.2846 C   0  0  0  0  0  0  0  0  0  0  0  0
   -1.9393   -2.5745   -1.4482 C   0  0  0  0  0  0  0  0  0  0  0  0
   -1.2854   -2.5907   -2.3328 H   0  0  0  0  0  0  0  0  0  0  0  0
   -3.1691   -3.2495   -1.4758 C   0  0  0  0  0  0  0  0  0  0  0  0
   -3.4750   -3.7886   -2.3854 H   0  0  0  0  0  0  0  0  0  0  0  0
   -4.0048   -3.2403   -0.3475 C   0  0  0  0  0  0  0  0  0  0  0  0
   -4.9704   -3.7678   -0.3741 H   0  0  0  0  0  0  0  0  0  0  0  0
   -3.6018   -2.5707    0.8191 C   0  0  0  0  0  0  0  0  0  0  0  0
   -4.2476   -2.5718    1.7099 H   0  0  0  0  0  0  0  0  0  0  0  0
   -2.3694   -1.9045    0.8568 C   0  0  0  0  0  0  0  0  0  0  0  0
   -2.0348   -1.3899    1.7710 H   0  0  0  0  0  0  0  0  0  0  0  0
   -0.3195    3.9776   -1.6950 C   0  0  0  0  0  0  0  0  0  0  0  0
    0.4295    3.6750   -2.4595 H   0  0  0  0  0  0  0  0  0  0  0  0
   -1.2910    3.4975   -1.9493 H   0  0  0  0  0  0  0  0  0  0  0  0
   -0.4599    5.4843   -1.6268 C   0  0  0  0  0  0  0  0  0  0  0  0
   -0.8019    5.8794   -2.6041 H   0  0  0  0  0  0  0  0  0  0  0  0
    0.5090    5.9582   -1.3746 H   0  0  0  0  0  0  0  0  0  0  0  0
   -1.1993    5.7718   -0.8540 H   0  0  0  0  0  0  0  0  0  0  0  0
    3.2297    2.0367   -0.8512 C   0  0  0  0  0  0  0  0  0  0  0  0
    3.7083    2.5338   -1.7190 H   0  0  0  0  0  0  0  0  0  0  0  0
    3.2234    2.7496   -0.0008 H   0  0  0  0  0  0  0  0  0  0  0  0
    3.9309    0.7479   -0.4761 C   0  0  0  0  0  0  0  0  0  0  0  0
    4.9839    0.9626   -0.2030 H   0  0  0  0  0  0  0  0  0  0  0  0
    3.9237    0.0309   -1.3202 H   0  0  0  0  0  0  0  0  0  0  0  0
    3.4384    0.2749    0.3989 H   0  0  0  0  0  0  0  0  0  0  0  0
  2  3  1  0  0  0  0
  4 48  1  0  0  0  0
  4  2  1  0  0  0  0
  5  2  1  0  0  0  0
  6  7  1  6  0  0  0
  6  8  1  0  0  0  0
  6  2  1  0  0  0  0
  6  1  1  0  0  0  0
  8 17  1  0  0  0  0
  9 11  1  0  0  0  0
  9  8  2  0  0  0  0
 10  9  1  0  0  0  0
 11 13  2  0  0  0  0
 12 11  1  0  0  0  0
 13 14  1  0  0  0  0
 13 15  1  0  0  0  0
 15 16  1  0  0  0  0
 17 15  2  0  0  0  0
 17 18  1  0  0  0  0
 19 28  1  0  0  0  0
 19  1  1  0  0  0  0
 20 19  2  0  0  0  0
 21 20  1  0  0  0  0
 22 24  2  0  0  0  0
 22 20  1  0  0  0  0
 23 22  1  0  0  0  0
 24 26  1  0  0  0  0
 25 24  1  0  0  0  0
 26 27  1  0  0  0  0
 26 28  2  0  0  0  0
 28 29  1  0  0  0  0
 30  1  1  0  0  0  0
 30 39  1  0  0  0  0
 31 30  2  0  0  0  0
 32 31  1  0  0  0  0
 33 31  1  0  0  0  0
 33 35  2  0  0  0  0
 34 33  1  0  0  0  0
 35 37  1  0  0  0  0
 36 35  1  0  0  0  0
 37 39  2  0  0  0  0
 37 38  1  0  0  0  0
 39 40  1  0  0  0  0
 41 44  1  0  0  0  0
 41  5  1  0  0  0  0
 42 41  1  0  0  0  0
 43 41  1  0  0  0  0
 44 46  1  0  0  0  0
 44 47  1  0  0  0  0
 45 44  1  0  0  0  0
 48 51  1  0  0  0  0
 48 50  1  0  0  0  0
 49 48  1  0  0  0  0
 51 52  1  0  0  0  0
 51 54  1  0  0  0  0
 53 51  1  0  0  0  0
M  END
