1,2
 OpenBabel05122313063D

 57 57  0  0  1  0  0  0  0  0999 V2000
   -0.4438    0.8727    0.3496 P   0  0  0  0  0  0  0  0  0  0  0  0
    0.3142   -1.2119   -1.4804 O   0  0  0  0  0  1  0  0  0  0  0  0
   -1.5596   -0.3082   -0.4894 N   0  0  0  0  0  0  0  0  0  0  0  0
   -1.7726   -2.0532   -2.2541 C   0  0  0  0  0  0  0  0  0  0  0  0
   -1.9150   -1.5239   -3.2193 H   0  0  0  0  0  0  0  0  0  0  0  0
   -2.7692   -2.2789   -1.8363 H   0  0  0  0  0  0  0  0  0  0  0  0
   -1.2160   -2.9838   -2.4651 H   0  0  0  0  0  0  0  0  0  0  0  0
   -0.9265   -1.1751   -1.3621 C   0  0  1  0  0  3  0  0  0  0  0  0
   -2.9095   -0.5566   -0.0499 C   0  0  0  0  0  0  0  0  0  0  0  0
   -4.0062    0.1143   -0.6531 C   0  0  0  0  0  0  0  0  0  0  0  0
   -5.2978   -0.1404   -0.1532 C   0  0  0  0  0  0  0  0  0  0  0  0
   -6.1604    0.3702   -0.6081 H   0  0  0  0  0  0  0  0  0  0  0  0
   -5.5035   -1.0352    0.9024 C   0  0  0  0  0  0  0  0  0  0  0  0
   -6.5208   -1.2176    1.2804 H   0  0  0  0  0  0  0  0  0  0  0  0
   -4.4143   -1.7085    1.4693 C   0  0  0  0  0  0  0  0  0  0  0  0
   -4.5862   -2.4232    2.2877 H   0  0  0  0  0  0  0  0  0  0  0  0
   -3.1022   -1.4908    1.0102 C   0  0  0  0  0  0  0  0  0  0  0  0
   -3.8339    1.0471   -1.8444 C   0  0  0  0  0  0  0  0  0  0  0  0
   -2.7466    1.1262   -2.0376 H   0  0  0  0  0  0  0  0  0  0  0  0
   -4.4882    0.4583   -3.1079 C   0  0  0  0  0  0  0  0  0  0  0  0
   -4.1041   -0.5553   -3.3346 H   0  0  0  0  0  0  0  0  0  0  0  0
   -4.2906    1.1053   -3.9869 H   0  0  0  0  0  0  0  0  0  0  0  0
   -5.5887    0.3789   -2.9909 H   0  0  0  0  0  0  0  0  0  0  0  0
   -4.3715    2.4611   -1.5686 C   0  0  0  0  0  0  0  0  0  0  0  0
   -5.4719    2.4567   -1.4265 H   0  0  0  0  0  0  0  0  0  0  0  0
   -4.1500    3.1338   -2.4219 H   0  0  0  0  0  0  0  0  0  0  0  0
   -3.9218    2.9046   -0.6584 H   0  0  0  0  0  0  0  0  0  0  0  0
   -1.9441   -2.2868    1.6122 C   0  0  0  0  0  0  0  0  0  0  0  0
   -0.9955   -1.7809    1.3325 H   0  0  0  0  0  0  0  0  0  0  0  0
   -1.8903   -3.7072    1.0173 C   0  0  0  0  0  0  0  0  0  0  0  0
   -2.8147   -4.2714    1.2600 H   0  0  0  0  0  0  0  0  0  0  0  0
   -1.0268   -4.2667    1.4302 H   0  0  0  0  0  0  0  0  0  0  0  0
   -1.7853   -3.6933   -0.0839 H   0  0  0  0  0  0  0  0  0  0  0  0
   -1.9917   -2.3552    3.1471 C   0  0  0  0  0  0  0  0  0  0  0  0
   -2.0676   -1.3489    3.6068 H   0  0  0  0  0  0  0  0  0  0  0  0
   -1.0708   -2.8354    3.5338 H   0  0  0  0  0  0  0  0  0  0  0  0
   -2.8515   -2.9550    3.5097 H   0  0  0  0  0  0  0  0  0  0  0  0
   -0.6673    2.4382   -0.6603 C   0  0  0  0  0  0  0  0  0  0  0  0
   -1.7398    2.7223   -0.6450 H   0  0  0  0  0  0  0  0  0  0  0  0
   -0.2097    2.1928   -2.1028 C   0  0  0  0  0  0  0  0  0  0  0  0
   -0.3160    3.1235   -2.6980 H   0  0  0  0  0  0  0  0  0  0  0  0
   -0.7979    1.4017   -2.6087 H   0  0  0  0  0  0  0  0  0  0  0  0
    0.8547    1.8792   -2.1248 H   0  0  0  0  0  0  0  0  0  0  0  0
    0.1715    3.5492   -0.0097 C   0  0  0  0  0  0  0  0  0  0  0  0
    1.2388    3.2517    0.0474 H   0  0  0  0  0  0  0  0  0  0  0  0
   -0.1696    3.8045    1.0125 H   0  0  0  0  0  0  0  0  0  0  0  0
    0.1091    4.4728   -0.6217 H   0  0  0  0  0  0  0  0  0  0  0  0
   -1.3207    1.1883    1.9836 C   0  0  0  0  0  0  0  0  0  0  0  0
   -1.7081    0.1834    2.2423 H   0  0  0  0  0  0  0  0  0  0  0  0
   -0.2721    1.5561    3.0455 C   0  0  0  0  0  0  0  0  0  0  0  0
    0.1826    2.5493    2.8569 H   0  0  0  0  0  0  0  0  0  0  0  0
    0.5500    0.8157    3.0791 H   0  0  0  0  0  0  0  0  0  0  0  0
   -0.7522    1.5954    4.0453 H   0  0  0  0  0  0  0  0  0  0  0  0
   -2.5054    2.1579    1.9635 C   0  0  0  0  0  0  0  0  0  0  0  0
   -2.9617    2.2058    2.9742 H   0  0  0  0  0  0  0  0  0  0  0  0
   -3.2965    1.8359    1.2606 H   0  0  0  0  0  0  0  0  0  0  0  0
   -2.1966    3.1888    1.6978 H   0  0  0  0  0  0  0  0  0  0  0  0
  1 48  1  0  0  0  0
  3  9  1  0  0  0  0
  3  1  1  0  0  0  0
  4  6  1  0  0  0  0
  4  8  1  0  0  0  0
  5  4  1  0  0  0  0
  7  4  1  0  0  0  0
  8  2  1  6  0  0  0
  8  3  1  0  0  0  0
  9 17  1  0  0  0  0
 10 11  1  0  0  0  0
 10  9  2  0  0  0  0
 11 13  2  0  0  0  0
 12 11  1  0  0  0  0
 13 14  1  0  0  0  0
 13 15  1  0  0  0  0
 15 16  1  0  0  0  0
 17 15  2  0  0  0  0
 17 28  1  0  0  0  0
 18 24  1  0  0  0  0
 18 10  1  0  0  0  0
 19 18  1  0  0  0  0
 20 23  1  0  0  0  0
 20 18  1  0  0  0  0
 21 20  1  0  0  0  0
 22 20  1  0  0  0  0
 24 25  1  0  0  0  0
 24 27  1  0  0  0  0
 26 24  1  0  0  0  0
 28 34  1  0  0  0  0
 29 28  1  0  0  0  0
 30 31  1  0  0  0  0
 30 32  1  0  0  0  0
 30 28  1  0  0  0  0
 33 30  1  0  0  0  0
 34 37  1  0  0  0  0
 34 36  1  0  0  0  0
 34 35  1  0  0  0  0
 38 39  1  0  0  0  0
 38 44  1  0  0  0  0
 38  1  1  0  0  0  0
 40 38  1  0  0  0  0
 41 40  1  0  0  0  0
 42 40  1  0  0  0  0
 43 40  1  0  0  0  0
 44 45  1  0  0  0  0
 44 46  1  0  0  0  0
 47 44  1  0  0  0  0
 48 49  1  0  0  0  0
 48 50  1  0  0  0  0
 50 52  1  0  0  0  0
 50 53  1  0  0  0  0
 51 50  1  0  0  0  0
 54 48  1  0  0  0  0
 54 55  1  0  0  0  0
 56 54  1  0  0  0  0
 57 54  1  0  0  0  0
M  END
