1,2
 OpenBabel05122313063D

 46 48  0  0  0  0  0  0  0  0999 V2000
    0.8974    0.3040   -0.1650 P   0  0  0  0  0  0  0  0  0  0  0  0
    0.1239   -2.2933   -1.0615 O   0  5  0  0  0  0  0  0  0  0  0  0
    2.0206   -0.8132   -1.0566 C   0  0  0  0  0  0  0  0  0  0  0  0
    1.3886   -2.0643   -1.3608 C   0  0  0  0  0  0  0  0  0  0  0  0
    2.1808   -3.0534   -2.0140 C   0  0  0  0  0  0  0  0  0  0  0  0
    1.7111   -4.0215   -2.2449 H   0  0  0  0  0  0  0  0  0  0  0  0
    3.5065   -2.7890   -2.3649 C   0  0  0  0  0  0  0  0  0  0  0  0
    4.0908   -3.5694   -2.8784 H   0  0  0  0  0  0  0  0  0  0  0  0
    4.1073   -1.5431   -2.0855 C   0  0  0  0  0  0  0  0  0  0  0  0
    5.1483   -1.3451   -2.3796 H   0  0  0  0  0  0  0  0  0  0  0  0
    3.3559   -0.5603   -1.4275 C   0  0  0  0  0  0  0  0  0  0  0  0
    3.8104    0.4191   -1.2071 H   0  0  0  0  0  0  0  0  0  0  0  0
    1.0985    1.9943   -0.9103 C   0  0  0  0  0  0  0  0  0  0  0  0
    2.1948    2.1870   -0.9697 H   0  0  0  0  0  0  0  0  0  0  0  0
    0.5282    1.9666   -2.3414 C   0  0  0  0  0  0  0  0  0  0  0  0
    1.0574    1.1981   -2.9421 H   0  0  0  0  0  0  0  0  0  0  0  0
   -0.5350    1.6463   -2.2843 H   0  0  0  0  0  0  0  0  0  0  0  0
    0.6145    3.3426   -3.0133 C   0  0  0  0  0  0  0  0  0  0  0  0
    1.6846    3.6099   -3.1666 H   0  0  0  0  0  0  0  0  0  0  0  0
    0.1570    3.2973   -4.0239 H   0  0  0  0  0  0  0  0  0  0  0  0
   -0.0596    4.4246   -2.1607 C   0  0  0  0  0  0  0  0  0  0  0  0
   -1.1480    4.2038   -2.0834 H   0  0  0  0  0  0  0  0  0  0  0  0
    0.0286    5.4175   -2.6498 H   0  0  0  0  0  0  0  0  0  0  0  0
    0.5407    4.4655   -0.7501 C   0  0  0  0  0  0  0  0  0  0  0  0
    0.0303    5.2326   -0.1309 H   0  0  0  0  0  0  0  0  0  0  0  0
    1.6091    4.7738   -0.8164 H   0  0  0  0  0  0  0  0  0  0  0  0
    0.4461    3.0987   -0.0576 C   0  0  0  0  0  0  0  0  0  0  0  0
   -0.6209    2.8459    0.1146 H   0  0  0  0  0  0  0  0  0  0  0  0
    0.9232    3.1486    0.9429 H   0  0  0  0  0  0  0  0  0  0  0  0
    1.5014    0.4167    1.5946 C   0  0  0  0  0  0  0  0  0  0  0  0
    0.7828    1.1173    2.0784 H   0  0  0  0  0  0  0  0  0  0  0  0
    1.3557   -0.9612    2.2666 C   0  0  0  0  0  0  0  0  0  0  0  0
    0.3089   -1.3195    2.1586 H   0  0  0  0  0  0  0  0  0  0  0  0
    1.9873   -1.6956    1.7189 H   0  0  0  0  0  0  0  0  0  0  0  0
    1.7732   -0.9120    3.7416 C   0  0  0  0  0  0  0  0  0  0  0  0
    1.0604   -0.2636    4.3002 H   0  0  0  0  0  0  0  0  0  0  0  0
    1.6952   -1.9237    4.1924 H   0  0  0  0  0  0  0  0  0  0  0  0
    3.1941   -0.3575    3.9058 C   0  0  0  0  0  0  0  0  0  0  0  0
    3.9161   -1.0647    3.4390 H   0  0  0  0  0  0  0  0  0  0  0  0
    3.4659   -0.2957    4.9805 H   0  0  0  0  0  0  0  0  0  0  0  0
    3.3356    1.0158    3.2372 C   0  0  0  0  0  0  0  0  0  0  0  0
    4.3773    1.3889    3.3296 H   0  0  0  0  0  0  0  0  0  0  0  0
    2.6908    1.7514    3.7692 H   0  0  0  0  0  0  0  0  0  0  0  0
    2.9263    0.9665    1.7570 C   0  0  0  0  0  0  0  0  0  0  0  0
    3.6298    0.3063    1.2043 H   0  0  0  0  0  0  0  0  0  0  0  0
    3.0121    1.9762    1.3034 H   0  0  0  0  0  0  0  0  0  0  0  0
  1 30  1  0  0  0  0
  3  1  1  0  0  0  0
  4  2  1  0  0  0  0
  4  3  1  0  0  0  0
  5  4  2  0  0  0  0
  6  5  1  0  0  0  0
  7  9  2  0  0  0  0
  7  5  1  0  0  0  0
  8  7  1  0  0  0  0
  9 11  1  0  0  0  0
 10  9  1  0  0  0  0
 11 12  1  0  0  0  0
 11  3  2  0  0  0  0
 13  1  1  0  0  0  0
 13 27  1  0  0  0  0
 14 13  1  0  0  0  0
 15 17  1  0  0  0  0
 15 13  1  0  0  0  0
 16 15  1  0  0  0  0
 18 15  1  0  0  0  0
 18 21  1  0  0  0  0
 19 18  1  0  0  0  0
 20 18  1  0  0  0  0
 21 22  1  0  0  0  0
 21 24  1  0  0  0  0
 23 21  1  0  0  0  0
 24 25  1  0  0  0  0
 24 27  1  0  0  0  0
 26 24  1  0  0  0  0
 27 28  1  0  0  0  0
 27 29  1  0  0  0  0
 30 44  1  0  0  0  0
 30 31  1  0  0  0  0
 30 32  1  0  0  0  0
 32 35  1  0  0  0  0
 33 32  1  0  0  0  0
 34 32  1  0  0  0  0
 35 38  1  0  0  0  0
 35 37  1  0  0  0  0
 35 36  1  0  0  0  0
 38 40  1  0  0  0  0
 39 38  1  0  0  0  0
 41 42  1  0  0  0  0
 41 43  1  0  0  0  0
 41 38  1  0  0  0  0
 44 41  1  0  0  0  0
 45 44  1  0  0  0  0
 46 44  1  0  0  0  0
M  CHG  1   2  -1
M  END
