1,2
 OpenBabel05122313063D

 38 40  0  0  0  0  0  0  0  0999 V2000
   -0.6296   -1.6604   -0.0508 P   0  0  0  0  0  0  0  0  0  0  0  0
    2.1371   -1.3100   -0.0114 O   0  5  0  0  0  0  0  0  0  0  0  0
    1.8335   -2.5846   -0.0452 C   0  0  0  0  0  0  0  0  0  0  0  0
    0.5131   -3.0206   -0.0491 C   0  0  0  0  0  0  0  0  0  0  0  0
    3.0023   -3.5130   -0.0717 C   0  0  0  0  0  0  0  0  0  0  0  0
    2.8596   -4.9170   -0.1227 C   0  0  0  0  0  0  0  0  0  0  0  0
    3.9868   -5.7477   -0.1454 C   0  0  0  0  0  0  0  0  0  0  0  0
    5.2768   -5.1906   -0.1173 C   0  0  0  0  0  0  0  0  0  0  0  0
    5.4295   -3.7958   -0.0668 C   0  0  0  0  0  0  0  0  0  0  0  0
    4.3027   -2.9636   -0.0445 C   0  0  0  0  0  0  0  0  0  0  0  0
   -1.6628   -1.7459   -1.5652 C   0  0  0  0  0  0  0  0  0  0  0  0
   -2.8465   -2.5045   -1.6577 C   0  0  0  0  0  0  0  0  0  0  0  0
   -3.5428   -2.5705   -2.8751 C   0  0  0  0  0  0  0  0  0  0  0  0
   -3.0597   -1.8896   -4.0038 C   0  0  0  0  0  0  0  0  0  0  0  0
   -1.8721   -1.1440   -3.9182 C   0  0  0  0  0  0  0  0  0  0  0  0
   -1.1787   -1.0695   -2.7046 C   0  0  0  0  0  0  0  0  0  0  0  0
   -1.7709   -1.8711    1.3719 C   0  0  0  0  0  0  0  0  0  0  0  0
   -3.0746   -1.3346    1.3961 C   0  0  0  0  0  0  0  0  0  0  0  0
   -3.8596   -1.4276    2.5534 C   0  0  0  0  0  0  0  0  0  0  0  0
   -3.3487   -2.0514    3.7025 C   0  0  0  0  0  0  0  0  0  0  0  0
   -2.0504   -2.5867    3.6873 C   0  0  0  0  0  0  0  0  0  0  0  0
   -1.2642   -2.4976    2.5296 C   0  0  0  0  0  0  0  0  0  0  0  0
    0.1912   -4.0678   -0.1087 H   0  0  0  0  0  0  0  0  0  0  0  0
    1.8566   -5.3669   -0.1466 H   0  0  0  0  0  0  0  0  0  0  0  0
    3.8588   -6.8403   -0.1863 H   0  0  0  0  0  0  0  0  0  0  0  0
    6.1615   -5.8454   -0.1355 H   0  0  0  0  0  0  0  0  0  0  0  0
    6.4371   -3.3526   -0.0452 H   0  0  0  0  0  0  0  0  0  0  0  0
    4.3958   -1.8691   -0.0062 H   0  0  0  0  0  0  0  0  0  0  0  0
   -3.2254   -3.0471   -0.7784 H   0  0  0  0  0  0  0  0  0  0  0  0
   -4.4683   -3.1629   -2.9421 H   0  0  0  0  0  0  0  0  0  0  0  0
   -3.6112   -1.9405   -4.9550 H   0  0  0  0  0  0  0  0  0  0  0  0
   -1.4918   -0.6032   -4.7974 H   0  0  0  0  0  0  0  0  0  0  0  0
   -0.2559   -0.4740   -2.6213 H   0  0  0  0  0  0  0  0  0  0  0  0
   -3.4819   -0.8438    0.5015 H   0  0  0  0  0  0  0  0  0  0  0  0
   -4.8734   -1.0001    2.5597 H   0  0  0  0  0  0  0  0  0  0  0  0
   -3.9638   -2.1194    4.6126 H   0  0  0  0  0  0  0  0  0  0  0  0
   -1.6458   -3.0798    4.5844 H   0  0  0  0  0  0  0  0  0  0  0  0
   -0.2452   -2.9158    2.5055 H   0  0  0  0  0  0  0  0  0  0  0  0
  1  4  1  0  0  0  0
  1 17  1  0  0  0  0
  3  2  1  0  0  0  0
  4  3  2  0  0  0  0
  5  3  1  0  0  0  0
  5 10  1  0  0  0  0
  6  5  2  0  0  0  0
  7  6  1  0  0  0  0
  7  8  2  0  0  0  0
  8  9  1  0  0  0  0
  9 27  1  0  0  0  0
  9 10  2  0  0  0  0
 10 28  1  0  0  0  0
 11  1  1  0  0  0  0
 12 11  1  0  0  0  0
 12 29  1  0  0  0  0
 13 12  2  0  0  0  0
 14 15  2  0  0  0  0
 14 13  1  0  0  0  0
 15 16  1  0  0  0  0
 16 33  1  0  0  0  0
 16 11  2  0  0  0  0
 17 18  2  0  0  0  0
 17 22  1  0  0  0  0
 18 19  1  0  0  0  0
 19 35  1  0  0  0  0
 19 20  2  0  0  0  0
 20 36  1  0  0  0  0
 21 20  1  0  0  0  0
 21 37  1  0  0  0  0
 22 21  2  0  0  0  0
 23  4  1  0  0  0  0
 24  6  1  0  0  0  0
 25  7  1  0  0  0  0
 26  8  1  0  0  0  0
 30 13  1  0  0  0  0
 31 14  1  0  0  0  0
 32 15  1  0  0  0  0
 34 18  1  0  0  0  0
 38 22  1  0  0  0  0
M  CHG  1   2  -1
M  END
