1,2
 OpenBabel05122313063D

 49 51  0  0  0  0  0  0  0  0999 V2000
   -0.9684   -0.9096    0.0662 P   0  0  0  0  0  0  0  0  0  0  0  0
    0.3334    1.7167    0.0024 O   0  5  0  0  0  0  0  0  0  0  0  0
   -3.8714   -0.4397    0.2764 O   0  0  0  0  0  0  0  0  0  0  0  0
   -3.9038    1.8357    0.3469 O   0  0  0  0  0  0  0  0  0  0  0  0
   -1.5358    3.0483    0.1519 N   0  0  0  0  0  0  0  0  0  0  0  0
   -1.5684   -1.8722   -1.3757 C   0  0  0  0  0  0  0  0  0  0  0  0
   -1.2854   -3.2503   -1.4788 C   0  0  0  0  0  0  0  0  0  0  0  0
   -1.6841   -3.9681   -2.6161 C   0  0  0  0  0  0  0  0  0  0  0  0
   -2.3627   -3.3173   -3.6595 C   0  0  0  0  0  0  0  0  0  0  0  0
   -2.6374   -1.9433   -3.5633 C   0  0  0  0  0  0  0  0  0  0  0  0
   -2.2406   -1.2216   -2.4280 C   0  0  0  0  0  0  0  0  0  0  0  0
   -1.3721   -1.9453    1.5326 C   0  0  0  0  0  0  0  0  0  0  0  0
   -2.4874   -2.8066    1.5714 C   0  0  0  0  0  0  0  0  0  0  0  0
   -2.7698   -3.5375    2.7347 C   0  0  0  0  0  0  0  0  0  0  0  0
   -1.9494   -3.4112    3.8678 C   0  0  0  0  0  0  0  0  0  0  0  0
   -0.8381   -2.5536    3.8341 C   0  0  0  0  0  0  0  0  0  0  0  0
   -0.5474   -1.8270    2.6701 C   0  0  0  0  0  0  0  0  0  0  0  0
   -1.8173    0.6637    0.1437 C   0  0  0  0  0  0  0  0  0  0  0  0
   -3.2485    0.7811    0.2660 C   0  0  0  0  0  0  0  0  0  0  0  0
   -5.3079   -0.4395    0.3189 C   0  0  0  0  0  0  0  0  0  0  0  0
   -5.9036   -0.3122   -1.0752 C   0  0  0  0  0  0  0  0  0  0  0  0
   -0.9446    1.8151    0.0945 C   0  0  0  0  0  0  0  0  0  0  0  0
   -0.9702    4.3244    0.0909 C   0  0  0  0  0  0  0  0  0  0  0  0
   -1.7990    5.4167    0.4471 C   0  0  0  0  0  0  0  0  0  0  0  0
   -1.3151    6.7281    0.3951 C   0  0  0  0  0  0  0  0  0  0  0  0
    0.0052    6.9857   -0.0101 C   0  0  0  0  0  0  0  0  0  0  0  0
    0.8272    5.9067   -0.3711 C   0  0  0  0  0  0  0  0  0  0  0  0
    0.3565    4.5872   -0.3273 C   0  0  0  0  0  0  0  0  0  0  0  0
   -2.5695    2.9724    0.2751 H   0  0  0  0  0  0  0  0  0  0  0  0
   -0.7593   -3.7662   -0.6608 H   0  0  0  0  0  0  0  0  0  0  0  0
   -1.4642   -5.0444   -2.6871 H   0  0  0  0  0  0  0  0  0  0  0  0
   -2.6770   -3.8825   -4.5501 H   0  0  0  0  0  0  0  0  0  0  0  0
   -3.1676   -1.4279   -4.3788 H   0  0  0  0  0  0  0  0  0  0  0  0
   -2.4509   -0.1442   -2.3458 H   0  0  0  0  0  0  0  0  0  0  0  0
   -3.1343   -2.8987    0.6878 H   0  0  0  0  0  0  0  0  0  0  0  0
   -3.6413   -4.2097    2.7576 H   0  0  0  0  0  0  0  0  0  0  0  0
   -2.1753   -3.9863    4.7788 H   0  0  0  0  0  0  0  0  0  0  0  0
   -0.1886   -2.4543    4.7171 H   0  0  0  0  0  0  0  0  0  0  0  0
    0.3299   -1.1610    2.6274 H   0  0  0  0  0  0  0  0  0  0  0  0
   -5.5761   -1.4067    0.7900 H   0  0  0  0  0  0  0  0  0  0  0  0
   -5.6501    0.3884    0.9724 H   0  0  0  0  0  0  0  0  0  0  0  0
   -5.6506    0.6742   -1.5110 H   0  0  0  0  0  0  0  0  0  0  0  0
   -5.5172   -1.1065   -1.7451 H   0  0  0  0  0  0  0  0  0  0  0  0
   -7.0086   -0.3967   -1.0318 H   0  0  0  0  0  0  0  0  0  0  0  0
   -2.8330    5.2191    0.7706 H   0  0  0  0  0  0  0  0  0  0  0  0
   -1.9793    7.5592    0.6783 H   0  0  0  0  0  0  0  0  0  0  0  0
    0.3865    8.0169   -0.0478 H   0  0  0  0  0  0  0  0  0  0  0  0
    1.8609    6.0927   -0.7028 H   0  0  0  0  0  0  0  0  0  0  0  0
    0.9921    3.7470   -0.6261 H   0  0  0  0  0  0  0  0  0  0  0  0
  1 18  1  0  0  0  0
  1 12  1  0  0  0  0
  2 22  1  0  0  0  0
  3 20  1  0  0  0  0
  5 29  1  0  0  0  0
  6  1  1  0  0  0  0
  7  6  1  0  0  0  0
  7 30  1  0  0  0  0
  8  7  2  0  0  0  0
  9 10  2  0  0  0  0
  9  8  1  0  0  0  0
 10 11  1  0  0  0  0
 11 34  1  0  0  0  0
 11  6  2  0  0  0  0
 12 13  2  0  0  0  0
 12 17  1  0  0  0  0
 13 14  1  0  0  0  0
 14 36  1  0  0  0  0
 14 15  2  0  0  0  0
 15 37  1  0  0  0  0
 16 15  1  0  0  0  0
 16 38  1  0  0  0  0
 17 16  2  0  0  0  0
 18 19  1  0  0  0  0
 19  3  1  0  0  0  0
 19  4  2  0  0  0  0
 20 40  1  0  0  0  0
 20 41  1  0  0  0  0
 21 44  1  0  0  0  0
 21 20  1  0  0  0  0
 22 18  2  0  0  0  0
 22  5  1  0  0  0  0
 23  5  1  0  0  0  0
 23 24  1  0  0  0  0
 24 45  1  0  0  0  0
 25 24  2  0  0  0  0
 25 46  1  0  0  0  0
 26 25  1  0  0  0  0
 27 28  1  0  0  0  0
 27 26  2  0  0  0  0
 28 23  2  0  0  0  0
 31  8  1  0  0  0  0
 32  9  1  0  0  0  0
 33 10  1  0  0  0  0
 35 13  1  0  0  0  0
 39 17  1  0  0  0  0
 42 21  1  0  0  0  0
 43 21  1  0  0  0  0
 47 26  1  0  0  0  0
 48 27  1  0  0  0  0
 49 28  1  0  0  0  0
M  CHG  1   2  -1
M  END
