1,2
 OpenBabel05122313063D

 38 40  0  0  0  0  0  0  0  0999 V2000
    1.2633    0.3847   -1.1386 P   0  0  0  0  0  0  0  0  0  0  0  0
    1.0995   -2.6399   -0.8671 O   0  5  0  0  0  0  0  0  0  0  0  0
    6.6309   -2.3618   -0.3789 O   0  0  0  0  0  0  0  0  0  0  0  0
    2.4312   -2.5633   -0.7693 C   0  0  0  0  0  0  0  0  0  0  0  0
    3.1623   -3.4933    0.0145 C   0  0  0  0  0  0  0  0  0  0  0  0
    4.5537   -3.4212    0.1229 C   0  0  0  0  0  0  0  0  0  0  0  0
    5.2694   -2.4006   -0.5369 C   0  0  0  0  0  0  0  0  0  0  0  0
    4.5679   -1.4707   -1.3226 C   0  0  0  0  0  0  0  0  0  0  0  0
    3.1704   -1.5578   -1.4645 C   0  0  0  0  0  0  0  0  0  0  0  0
    2.3857   -0.5799   -2.2820 C   0  0  0  0  0  0  0  0  0  0  0  0
    2.4541    1.3746   -0.1627 C   0  0  0  0  0  0  0  0  0  0  0  0
    2.8424    0.8630    1.0916 C   0  0  0  0  0  0  0  0  0  0  0  0
    3.8291    1.5174    1.8420 C   0  0  0  0  0  0  0  0  0  0  0  0
    4.4305    2.6853    1.3485 C   0  0  0  0  0  0  0  0  0  0  0  0
    4.0571    3.1906    0.0919 C   0  0  0  0  0  0  0  0  0  0  0  0
    3.0789    2.5334   -0.6688 C   0  0  0  0  0  0  0  0  0  0  0  0
    0.3256    1.5415   -2.2084 C   0  0  0  0  0  0  0  0  0  0  0  0
   -0.2349    1.0407   -3.4036 C   0  0  0  0  0  0  0  0  0  0  0  0
   -1.0472    1.8576   -4.2021 C   0  0  0  0  0  0  0  0  0  0  0  0
   -1.3240    3.1774   -3.8112 C   0  0  0  0  0  0  0  0  0  0  0  0
   -0.7799    3.6787   -2.6191 C   0  0  0  0  0  0  0  0  0  0  0  0
    0.0421    2.8679   -1.8233 C   0  0  0  0  0  0  0  0  0  0  0  0
    6.9693   -1.6088   -0.8962 H   0  0  0  0  0  0  0  0  0  0  0  0
    2.5933   -4.2730    0.5418 H   0  0  0  0  0  0  0  0  0  0  0  0
    5.1148   -4.1456    0.7319 H   0  0  0  0  0  0  0  0  0  0  0  0
    5.1171   -0.6670   -1.8439 H   0  0  0  0  0  0  0  0  0  0  0  0
    1.7076   -1.1098   -2.9831 H   0  0  0  0  0  0  0  0  0  0  0  0
    3.0225    0.1346   -2.8398 H   0  0  0  0  0  0  0  0  0  0  0  0
    2.3630   -0.0535    1.4692 H   0  0  0  0  0  0  0  0  0  0  0  0
    4.1254    1.1118    2.8206 H   0  0  0  0  0  0  0  0  0  0  0  0
    5.1994    3.2027    1.9424 H   0  0  0  0  0  0  0  0  0  0  0  0
    4.5360    4.0999   -0.3025 H   0  0  0  0  0  0  0  0  0  0  0  0
    2.8040    2.9234   -1.6607 H   0  0  0  0  0  0  0  0  0  0  0  0
   -0.0512   -0.0015   -3.7053 H   0  0  0  0  0  0  0  0  0  0  0  0
   -1.4748    1.4552   -5.1330 H   0  0  0  0  0  0  0  0  0  0  0  0
   -1.9709    3.8139   -4.4334 H   0  0  0  0  0  0  0  0  0  0  0  0
   -1.0014    4.7083   -2.3002 H   0  0  0  0  0  0  0  0  0  0  0  0
    0.4673    3.2686   -0.8928 H   0  0  0  0  0  0  0  0  0  0  0  0
  1 11  1  0  0  0  0
  2  4  1  0  0  0  0
  4  5  1  0  0  0  0
  5  6  2  0  0  0  0
  5 24  1  0  0  0  0
  6 25  1  0  0  0  0
  7  3  1  0  0  0  0
  7  6  1  0  0  0  0
  8  7  2  0  0  0  0
  9  8  1  0  0  0  0
  9  4  2  0  0  0  0
 10  9  1  0  0  0  0
 10  1  1  0  0  0  0
 11 12  1  0  0  0  0
 12 29  1  0  0  0  0
 12 13  2  0  0  0  0
 13 30  1  0  0  0  0
 14 13  1  0  0  0  0
 14 31  1  0  0  0  0
 15 14  2  0  0  0  0
 16 11  2  0  0  0  0
 16 15  1  0  0  0  0
 17 22  1  0  0  0  0
 17  1  1  0  0  0  0
 18 17  2  0  0  0  0
 19 20  2  0  0  0  0
 19 18  1  0  0  0  0
 20 21  1  0  0  0  0
 21 37  1  0  0  0  0
 21 22  2  0  0  0  0
 22 38  1  0  0  0  0
 23  3  1  0  0  0  0
 26  8  1  0  0  0  0
 27 10  1  0  0  0  0
 28 10  1  0  0  0  0
 32 15  1  0  0  0  0
 33 16  1  0  0  0  0
 34 18  1  0  0  0  0
 35 19  1  0  0  0  0
 36 20  1  0  0  0  0
M  CHG  1   2  -1
M  END
