1,3
 OpenBabel05122313063D

 50 51  0  0  0  0  0  0  0  0999 V2000
    1.0447   -0.1313   -0.2745 P   0  0  0  0  0  0  0  0  0  0  0  0
   -1.8567    0.1008   -0.5193 P   0  0  0  0  0  4  0  0  0  0  0  0
   -1.5946    1.3132    0.3681 O   0  0  0  0  0  1  0  0  0  0  0  0
   -2.2875   -1.1623    0.3966 O   0  0  0  0  0  0  0  0  0  0  0  0
   -3.0238    0.3714   -1.6125 O   0  0  0  0  0  0  0  0  0  0  0  0
   -0.3872   -0.3466   -1.4833 C   0  0  0  0  0  0  0  0  0  0  0  0
    1.2076   -1.8205    0.4478 C   0  0  0  0  0  0  0  0  0  0  0  0
    1.1874   -2.9981   -0.3305 C   0  0  0  0  0  0  0  0  0  0  0  0
    1.3007   -4.2540    0.2844 C   0  0  0  0  0  0  0  0  0  0  0  0
    1.4393   -4.3437    1.6800 C   0  0  0  0  0  0  0  0  0  0  0  0
    1.4563   -3.1762    2.4592 C   0  0  0  0  0  0  0  0  0  0  0  0
    1.3356   -1.9185    1.8475 C   0  0  0  0  0  0  0  0  0  0  0  0
    2.4906    0.0642   -1.3999 C   0  0  0  0  0  0  0  0  0  0  0  0
    3.4642   -0.9287   -1.6200 C   0  0  0  0  0  0  0  0  0  0  0  0
    4.5493   -0.6688   -2.4730 C   0  0  0  0  0  0  0  0  0  0  0  0
    4.6670    0.5756   -3.1098 C   0  0  0  0  0  0  0  0  0  0  0  0
    3.7050    1.5738   -2.8800 C   0  0  0  0  0  0  0  0  0  0  0  0
    2.6283    1.3256   -2.0189 C   0  0  0  0  0  0  0  0  0  0  0  0
   -4.0248    1.4295   -1.3728 C   0  0  0  0  0  0  0  0  0  0  0  0
   -4.6887    1.6784   -2.7155 C   0  0  0  0  0  0  0  0  0  0  0  0
   -4.9876    1.0090   -0.2715 C   0  0  0  0  0  0  0  0  0  0  0  0
   -2.4829   -2.5326   -0.0697 C   0  0  0  0  0  0  0  0  0  0  0  0
   -2.2947   -3.4168    1.1519 C   0  0  0  0  0  0  0  0  0  0  0  0
   -3.8464   -2.6789   -0.7334 C   0  0  0  0  0  0  0  0  0  0  0  0
   -0.2780    0.4228   -2.2731 H   0  0  0  0  0  0  0  0  0  0  0  0
   -0.4425   -1.3443   -1.9607 H   0  0  0  0  0  0  0  0  0  0  0  0
    1.0925   -2.9406   -1.4267 H   0  0  0  0  0  0  0  0  0  0  0  0
    1.2832   -5.1680   -0.3288 H   0  0  0  0  0  0  0  0  0  0  0  0
    1.5281   -5.3298    2.1608 H   0  0  0  0  0  0  0  0  0  0  0  0
    1.5562   -3.2426    3.5530 H   0  0  0  0  0  0  0  0  0  0  0  0
    1.3192   -0.9921    2.4452 H   0  0  0  0  0  0  0  0  0  0  0  0
    3.3881   -1.9022   -1.1147 H   0  0  0  0  0  0  0  0  0  0  0  0
    5.3118   -1.4459   -2.6342 H   0  0  0  0  0  0  0  0  0  0  0  0
    5.5202    0.7754   -3.7757 H   0  0  0  0  0  0  0  0  0  0  0  0
    3.8048    2.5595   -3.3590 H   0  0  0  0  0  0  0  0  0  0  0  0
    1.8981    2.1200   -1.7898 H   0  0  0  0  0  0  0  0  0  0  0  0
   -3.4618    2.3292   -1.0457 H   0  0  0  0  0  0  0  0  0  0  0  0
   -5.2344    0.7760   -3.0585 H   0  0  0  0  0  0  0  0  0  0  0  0
   -5.4132    2.5119   -2.6292 H   0  0  0  0  0  0  0  0  0  0  0  0
   -3.9370    1.9478   -3.4824 H   0  0  0  0  0  0  0  0  0  0  0  0
   -4.4518    0.8465    0.6840 H   0  0  0  0  0  0  0  0  0  0  0  0
   -5.7361    1.8090   -0.1043 H   0  0  0  0  0  0  0  0  0  0  0  0
   -5.5259    0.0799   -0.5474 H   0  0  0  0  0  0  0  0  0  0  0  0
   -1.6794   -2.7629   -0.8058 H   0  0  0  0  0  0  0  0  0  0  0  0
   -1.2943   -3.2583    1.5962 H   0  0  0  0  0  0  0  0  0  0  0  0
   -3.0630   -3.1832    1.9157 H   0  0  0  0  0  0  0  0  0  0  0  0
   -2.3897   -4.4836    0.8689 H   0  0  0  0  0  0  0  0  0  0  0  0
   -3.9398   -2.0118   -1.6113 H   0  0  0  0  0  0  0  0  0  0  0  0
   -4.6516   -2.4263   -0.0144 H   0  0  0  0  0  0  0  0  0  0  0  0
   -3.9942   -3.7253   -1.0672 H   0  0  0  0  0  0  0  0  0  0  0  0
  1  7  1  0  0  0  0
  2  3  1  0  0  0  0
  2  4  1  0  0  0  0
  5 19  1  0  0  0  0
  5  2  1  0  0  0  0
  6  2  1  0  0  0  0
  6  1  1  0  0  0  0
  7 12  1  0  0  0  0
  8  9  1  0  0  0  0
  8  7  2  0  0  0  0
  9 10  2  0  0  0  0
 10 29  1  0  0  0  0
 10 11  1  0  0  0  0
 11 30  1  0  0  0  0
 12 31  1  0  0  0  0
 12 11  2  0  0  0  0
 13  1  1  0  0  0  0
 14 13  1  0  0  0  0
 14 32  1  0  0  0  0
 15 14  2  0  0  0  0
 16 17  2  0  0  0  0
 16 15  1  0  0  0  0
 17 18  1  0  0  0  0
 18 36  1  0  0  0  0
 18 13  2  0  0  0  0
 19 37  1  0  0  0  0
 19 21  1  0  0  0  0
 20 39  1  0  0  0  0
 20 19  1  0  0  0  0
 21 42  1  0  0  0  0
 21 41  1  0  0  0  0
 22  4  1  0  0  0  0
 22 23  1  0  0  0  0
 23 45  1  0  0  0  0
 23 46  1  0  0  0  0
 24 22  1  0  0  0  0
 24 49  1  0  0  0  0
 25  6  1  0  0  0  0
 26  6  1  0  0  0  0
 27  8  1  0  0  0  0
 28  9  1  0  0  0  0
 33 15  1  0  0  0  0
 34 16  1  0  0  0  0
 35 17  1  0  0  0  0
 38 20  1  0  0  0  0
 40 20  1  0  0  0  0
 43 21  1  0  0  0  0
 44 22  1  0  0  0  0
 47 23  1  0  0  0  0
 48 24  1  0  0  0  0
 50 24  1  0  0  0  0
M  END
