1,2
 OpenBabel05122313063D

 45 47  0  0  1  0  0  0  0  0999 V2000
    0.1388    0.9956   -0.1084 P   0  0  0  0  0  0  0  0  0  0  0  0
   -1.0574   -1.6717    0.7471 O   0  0  0  0  0  1  0  0  0  0  0  0
   -4.9560   -0.2264   -0.1108 O   0  0  0  0  0  0  0  0  0  0  0  0
   -4.7439    0.4911   -0.7362 H   0  0  0  0  0  0  0  0  0  0  0  0
   -3.0419   -1.1789    1.6982 N   0  0  0  0  0  0  0  0  0  0  0  0
   -3.5890   -0.4287    2.1253 H   0  0  0  0  0  0  0  0  0  0  0  0
   -0.2959    1.1664    1.6798 C   0  0  0  0  0  0  0  0  0  0  0  0
    0.2054    2.2283    2.4499 C   0  0  0  0  0  0  0  0  0  0  0  0
    0.8671    2.9694    1.9787 H   0  0  0  0  0  0  0  0  0  0  0  0
   -0.1159    2.3421    3.8117 C   0  0  0  0  0  0  0  0  0  0  0  0
    0.3010    3.1722    4.4015 H   0  0  0  0  0  0  0  0  0  0  0  0
   -0.9572    1.3990    4.4167 C   0  0  0  0  0  0  0  0  0  0  0  0
   -1.2031    1.4765    5.4861 H   0  0  0  0  0  0  0  0  0  0  0  0
   -1.4789    0.3440    3.6548 C   0  0  0  0  0  0  0  0  0  0  0  0
   -2.1225   -0.4127    4.1283 H   0  0  0  0  0  0  0  0  0  0  0  0
   -1.1499    0.2114    2.2916 C   0  0  0  0  0  0  0  0  0  0  0  0
   -1.7198   -0.9385    1.5186 C   0  0  1  0  0  3  0  0  0  0  0  0
   -3.7736   -2.0798    0.8153 C   0  0  0  0  0  0  0  0  0  0  0  0
   -4.6738   -2.4360    1.3554 H   0  0  0  0  0  0  0  0  0  0  0  0
   -3.1294   -2.9491    0.5857 H   0  0  0  0  0  0  0  0  0  0  0  0
   -4.1803   -1.3595   -0.4712 C   0  0  0  0  0  0  0  0  0  0  0  0
   -3.2613   -1.0761   -1.0318 H   0  0  0  0  0  0  0  0  0  0  0  0
   -4.7520   -2.0703   -1.1158 H   0  0  0  0  0  0  0  0  0  0  0  0
   -1.3989    1.5783   -0.9505 C   0  0  0  0  0  0  0  0  0  0  0  0
   -2.4864    2.1378   -0.2518 C   0  0  0  0  0  0  0  0  0  0  0  0
   -2.4292    2.2736    0.8380 H   0  0  0  0  0  0  0  0  0  0  0  0
   -3.6458    2.5302   -0.9440 C   0  0  0  0  0  0  0  0  0  0  0  0
   -4.4851    2.9763   -0.3881 H   0  0  0  0  0  0  0  0  0  0  0  0
   -3.7299    2.3595   -2.3357 C   0  0  0  0  0  0  0  0  0  0  0  0
   -4.6396    2.6626   -2.8760 H   0  0  0  0  0  0  0  0  0  0  0  0
   -2.6413    1.8122   -3.0383 C   0  0  0  0  0  0  0  0  0  0  0  0
   -2.6973    1.6783   -4.1288 H   0  0  0  0  0  0  0  0  0  0  0  0
   -1.4828    1.4268   -2.3521 C   0  0  0  0  0  0  0  0  0  0  0  0
   -0.6376    0.9924   -2.9060 H   0  0  0  0  0  0  0  0  0  0  0  0
    1.3542    2.3344   -0.4246 C   0  0  0  0  0  0  0  0  0  0  0  0
    0.9624    3.5900   -0.9320 C   0  0  0  0  0  0  0  0  0  0  0  0
   -0.0965    3.7911   -1.1521 H   0  0  0  0  0  0  0  0  0  0  0  0
    1.9272    4.5826   -1.1623 C   0  0  0  0  0  0  0  0  0  0  0  0
    1.6184    5.5598   -1.5636 H   0  0  0  0  0  0  0  0  0  0  0  0
    3.2797    4.3288   -0.8846 C   0  0  0  0  0  0  0  0  0  0  0  0
    4.0347    5.1080   -1.0696 H   0  0  0  0  0  0  0  0  0  0  0  0
    3.6689    3.0792   -0.3749 C   0  0  0  0  0  0  0  0  0  0  0  0
    4.7281    2.8750   -0.1579 H   0  0  0  0  0  0  0  0  0  0  0  0
    2.7142    2.0781   -0.1473 C   0  0  0  0  0  0  0  0  0  0  0  0
    3.0103    1.0991    0.2650 H   0  0  0  0  0  0  0  0  0  0  0  0
  1  7  1  0  0  0  0
  4  3  1  0  0  0  0
  5  6  1  0  0  0  0
  7 16  2  0  0  0  0
  7  8  1  0  0  0  0
  8 10  2  0  0  0  0
  9  8  1  0  0  0  0
 10 11  1  0  0  0  0
 10 12  1  0  0  0  0
 12 13  1  0  0  0  0
 14 15  1  0  0  0  0
 14 12  2  0  0  0  0
 16 14  1  0  0  0  0
 17  2  1  1  0  0  0
 17  5  1  0  0  0  0
 17 16  1  0  0  0  0
 18 19  1  0  0  0  0
 18  5  1  0  0  0  0
 20 18  1  0  0  0  0
 21  3  1  0  0  0  0
 21 18  1  0  0  0  0
 22 21  1  0  0  0  0
 23 21  1  0  0  0  0
 24 25  1  0  0  0  0
 24  1  1  0  0  0  0
 25 26  1  0  0  0  0
 27 28  1  0  0  0  0
 27 25  2  0  0  0  0
 29 27  1  0  0  0  0
 30 29  1  0  0  0  0
 31 33  1  0  0  0  0
 31 29  2  0  0  0  0
 32 31  1  0  0  0  0
 33 24  2  0  0  0  0
 34 33  1  0  0  0  0
 35 44  1  0  0  0  0
 35  1  1  0  0  0  0
 36 35  2  0  0  0  0
 37 36  1  0  0  0  0
 38 36  1  0  0  0  0
 38 40  2  0  0  0  0
 39 38  1  0  0  0  0
 40 42  1  0  0  0  0
 41 40  1  0  0  0  0
 42 43  1  0  0  0  0
 42 44  2  0  0  0  0
 44 45  1  0  0  0  0
M  END
