1,5
 OpenBabel05122313063D

 40 41  0  0  0  0  0  0  0  0999 V2000
    2.5320   -0.0867   -0.2145 P   0  0  0  0  0  0  0  0  0  0  0  0
    1.8893    2.6716   -0.6277 O   0  0  0  0  0  0  0  0  0  0  0  0
    5.3495   -0.9321   -0.8021 O   0  0  0  0  0  0  0  0  0  0  0  0
   -0.0899   -1.3470   -3.7488 O   0  5  0  0  0  0  0  0  0  0  0  0
    0.1535   -1.3685   -1.5346 O   0  0  0  0  0  0  0  0  0  0  0  0
    2.7768   -0.0004   -2.0627 C   0  0  0  0  0  0  0  0  0  0  0  0
    3.5091    0.8071   -2.2558 H   0  0  0  0  0  0  0  0  0  0  0  0
    3.2508   -0.9522   -2.3728 H   0  0  0  0  0  0  0  0  0  0  0  0
    1.4693    0.2441   -2.8254 C   0  0  0  0  0  0  0  0  0  0  0  0
    0.9984    1.1749   -2.4466 H   0  0  0  0  0  0  0  0  0  0  0  0
    1.6903    0.3896   -3.9011 H   0  0  0  0  0  0  0  0  0  0  0  0
    0.4393   -0.8918   -2.7348 C   0  0  0  0  0  0  0  0  0  0  0  0
    3.4108    1.3182    0.5525 C   0  0  0  0  0  0  0  0  0  0  0  0
    2.8784    2.6091    0.3042 C   0  0  0  0  0  0  0  0  0  0  0  0
    3.3745    3.7248    1.0027 C   0  0  0  0  0  0  0  0  0  0  0  0
    2.9476    4.7216    0.8282 H   0  0  0  0  0  0  0  0  0  0  0  0
    4.4181    3.5563    1.9249 C   0  0  0  0  0  0  0  0  0  0  0  0
    4.8055    4.4339    2.4647 H   0  0  0  0  0  0  0  0  0  0  0  0
    4.9585    2.2852    2.1706 C   0  0  0  0  0  0  0  0  0  0  0  0
    5.7670    2.1568    2.9050 H   0  0  0  0  0  0  0  0  0  0  0  0
    4.4441    1.1699    1.4920 C   0  0  0  0  0  0  0  0  0  0  0  0
    4.8290    0.1647    1.7169 H   0  0  0  0  0  0  0  0  0  0  0  0
    0.9234    3.7140   -0.5255 C   0  0  0  0  0  0  0  0  0  0  0  0
    0.5112    3.7550    0.5039 H   0  0  0  0  0  0  0  0  0  0  0  0
    0.1059    3.4508   -1.2212 H   0  0  0  0  0  0  0  0  0  0  0  0
    1.3492    4.6989   -0.8175 H   0  0  0  0  0  0  0  0  0  0  0  0
    3.4064   -1.5835    0.3637 C   0  0  0  0  0  0  0  0  0  0  0  0
    4.7522   -1.8560   -0.0008 C   0  0  0  0  0  0  0  0  0  0  0  0
    5.3853   -3.0220    0.4714 C   0  0  0  0  0  0  0  0  0  0  0  0
    6.4248   -3.2458    0.1971 H   0  0  0  0  0  0  0  0  0  0  0  0
    4.6785   -3.9098    1.2996 C   0  0  0  0  0  0  0  0  0  0  0  0
    5.1832   -4.8193    1.6600 H   0  0  0  0  0  0  0  0  0  0  0  0
    3.3503   -3.6517    1.6645 C   0  0  0  0  0  0  0  0  0  0  0  0
    2.8020   -4.3522    2.3105 H   0  0  0  0  0  0  0  0  0  0  0  0
    2.7219   -2.4887    1.1931 C   0  0  0  0  0  0  0  0  0  0  0  0
    1.6761   -2.2586    1.4555 H   0  0  0  0  0  0  0  0  0  0  0  0
    6.7077   -1.1078   -1.1624 C   0  0  0  0  0  0  0  0  0  0  0  0
    7.3688   -1.1329   -0.2680 H   0  0  0  0  0  0  0  0  0  0  0  0
    6.9776   -0.2362   -1.7862 H   0  0  0  0  0  0  0  0  0  0  0  0
    6.8617   -2.0390   -1.7513 H   0  0  0  0  0  0  0  0  0  0  0  0
  1 27  1  0  0  0  0
  1 13  1  0  0  0  0
  2 23  1  0  0  0  0
  2 14  1  0  0  0  0
  3 28  1  0  0  0  0
  4 12  1  0  0  0  0
  6  1  1  0  0  0  0
  7  6  1  0  0  0  0
  8  6  1  0  0  0  0
  9 12  1  0  0  0  0
  9 10  1  0  0  0  0
  9  6  1  0  0  0  0
 11  9  1  0  0  0  0
 12  5  2  0  0  0  0
 13 21  1  0  0  0  0
 14 13  2  0  0  0  0
 14 15  1  0  0  0  0
 15 17  2  0  0  0  0
 16 15  1  0  0  0  0
 17 19  1  0  0  0  0
 17 18  1  0  0  0  0
 19 20  1  0  0  0  0
 21 22  1  0  0  0  0
 21 19  2  0  0  0  0
 23 24  1  0  0  0  0
 25 23  1  0  0  0  0
 26 23  1  0  0  0  0
 27 35  1  0  0  0  0
 28 27  2  0  0  0  0
 28 29  1  0  0  0  0
 29 31  2  0  0  0  0
 30 29  1  0  0  0  0
 31 32  1  0  0  0  0
 31 33  1  0  0  0  0
 33 34  1  0  0  0  0
 35 36  1  0  0  0  0
 35 33  2  0  0  0  0
 37  3  1  0  0  0  0
 37 38  1  0  0  0  0
 39 37  1  0  0  0  0
 40 37  1  0  0  0  0
M  CHG  1   4  -1
M  END
