2,5
 OpenBabel05122313063D

 75 78  0  0  0  0  0  0  0  0999 V2000
    0.9723    0.4532    0.5289 N   0  0  0  0  0  0  0  0  0  0  0  0
   -1.3005   -0.1641    1.7871 O   0  0  0  0  0  1  0  0  0  0  0  0
   -0.7258    3.4745   -1.0690 O   0  0  0  0  0  0  0  0  0  0  0  0
   -2.9489   -0.5808   -1.8857 O   0  0  0  0  0  0  0  0  0  0  0  0
    0.4950   -0.8180   -0.6149 P   0  0  1  0  0  0  0  0  0  0  0  0
    0.0696    0.4954    2.0084 P   0  0  0  0  0  4  0  0  0  0  0  0
    2.1695    1.2195    0.3490 C   0  0  0  0  0  0  0  0  0  0  0  0
    3.3496    0.8860    1.0486 C   0  0  0  0  0  0  0  0  0  0  0  0
    3.3502    0.0198    1.7241 H   0  0  0  0  0  0  0  0  0  0  0  0
    4.5199    1.6346    0.8595 C   0  0  0  0  0  0  0  0  0  0  0  0
    5.4323    1.3662    1.4132 H   0  0  0  0  0  0  0  0  0  0  0  0
    4.5335    2.7053   -0.0489 C   0  0  0  0  0  0  0  0  0  0  0  0
    5.4549    3.2868   -0.2039 H   0  0  0  0  0  0  0  0  0  0  0  0
    3.3666    3.0256   -0.7623 C   0  0  0  0  0  0  0  0  0  0  0  0
    3.3706    3.8611   -1.4792 H   0  0  0  0  0  0  0  0  0  0  0  0
    2.1861    2.2937   -0.5638 C   0  0  0  0  0  0  0  0  0  0  0  0
    1.2615    2.5500   -1.0981 H   0  0  0  0  0  0  0  0  0  0  0  0
    0.2255    0.0342   -2.2332 C   0  0  0  0  0  0  0  0  0  0  0  0
   -0.7914    1.0192   -2.3983 C   0  0  0  0  0  0  0  0  0  0  0  0
   -0.9336    1.6339   -3.6591 C   0  0  0  0  0  0  0  0  0  0  0  0
   -1.7098    2.4052   -3.7721 H   0  0  0  0  0  0  0  0  0  0  0  0
   -0.1490    1.2603   -4.7575 C   0  0  0  0  0  0  0  0  0  0  0  0
   -0.2937    1.7535   -5.7308 H   0  0  0  0  0  0  0  0  0  0  0  0
    0.7901    0.2311   -4.6139 C   0  0  0  0  0  0  0  0  0  0  0  0
    1.3883   -0.1067   -5.4735 H   0  0  0  0  0  0  0  0  0  0  0  0
    0.9727   -0.3710   -3.3619 C   0  0  0  0  0  0  0  0  0  0  0  0
    1.7104   -1.1781   -3.2645 H   0  0  0  0  0  0  0  0  0  0  0  0
   -1.7921    1.3914   -1.3537 C   0  0  0  0  0  0  0  0  0  0  0  0
   -1.7861    2.6646   -0.7397 C   0  0  0  0  0  0  0  0  0  0  0  0
   -2.8097    3.0561    0.1431 C   0  0  0  0  0  0  0  0  0  0  0  0
   -2.7969    4.0397    0.6283 H   0  0  0  0  0  0  0  0  0  0  0  0
   -3.8480    2.1527    0.4150 C   0  0  0  0  0  0  0  0  0  0  0  0
   -4.6347    2.4381    1.1298 H   0  0  0  0  0  0  0  0  0  0  0  0
   -3.9103    0.9026   -0.2044 C   0  0  0  0  0  0  0  0  0  0  0  0
   -4.7273    0.2105    0.0294 H   0  0  0  0  0  0  0  0  0  0  0  0
   -2.9067    0.5398   -1.1280 C   0  0  0  0  0  0  0  0  0  0  0  0
   -0.7064    4.8010   -0.5793 C   0  0  0  0  0  0  0  0  0  0  0  0
   -1.6013    5.3742   -0.9075 H   0  0  0  0  0  0  0  0  0  0  0  0
    0.2030    5.2736   -0.9953 H   0  0  0  0  0  0  0  0  0  0  0  0
   -0.6494    4.8367    0.5324 H   0  0  0  0  0  0  0  0  0  0  0  0
   -4.0588   -1.4630   -1.7375 C   0  0  0  0  0  0  0  0  0  0  0  0
   -4.0678   -1.9279   -0.7266 H   0  0  0  0  0  0  0  0  0  0  0  0
   -3.9168   -2.2524   -2.4976 H   0  0  0  0  0  0  0  0  0  0  0  0
   -5.0167   -0.9337   -1.9356 H   0  0  0  0  0  0  0  0  0  0  0  0
    2.0871   -1.7293   -0.8258 C   0  0  0  0  0  0  0  0  0  0  0  0
    3.2574   -1.1340   -1.3519 C   0  0  0  0  0  0  0  0  0  0  0  0
    3.2311   -0.1093   -1.7479 H   0  0  0  0  0  0  0  0  0  0  0  0
    4.4652   -1.8462   -1.3732 C   0  0  0  0  0  0  0  0  0  0  0  0
    5.3689   -1.3681   -1.7808 H   0  0  0  0  0  0  0  0  0  0  0  0
    4.5229   -3.1575   -0.8742 C   0  0  0  0  0  0  0  0  0  0  0  0
    5.4724   -3.7140   -0.8947 H   0  0  0  0  0  0  0  0  0  0  0  0
    3.3666   -3.7558   -0.3503 C   0  0  0  0  0  0  0  0  0  0  0  0
    3.4026   -4.7834    0.0418 H   0  0  0  0  0  0  0  0  0  0  0  0
    2.1570   -3.0455   -0.3232 C   0  0  0  0  0  0  0  0  0  0  0  0
    1.2493   -3.5006    0.1000 H   0  0  0  0  0  0  0  0  0  0  0  0
    1.0218   -0.3682    3.3444 C   0  0  0  0  0  0  0  0  0  0  0  0
    1.9386    0.2369    3.5169 H   0  0  0  0  0  0  0  0  0  0  0  0
    0.1676   -0.3875    4.6225 C   0  0  0  0  0  0  0  0  0  0  0  0
   -0.8044   -0.8827    4.4272 H   0  0  0  0  0  0  0  0  0  0  0  0
   -0.0343    0.6274    5.0169 H   0  0  0  0  0  0  0  0  0  0  0  0
    0.6945   -0.9558    5.4157 H   0  0  0  0  0  0  0  0  0  0  0  0
    1.4105   -1.7853    2.9093 C   0  0  0  0  0  0  0  0  0  0  0  0
    1.9331   -2.3023    3.7400 H   0  0  0  0  0  0  0  0  0  0  0  0
    2.0821   -1.7882    2.0297 H   0  0  0  0  0  0  0  0  0  0  0  0
    0.5106   -2.3780    2.6422 H   0  0  0  0  0  0  0  0  0  0  0  0
   -0.1056    2.2929    2.4244 C   0  0  0  0  0  0  0  0  0  0  0  0
   -0.2254    2.7271    1.4089 H   0  0  0  0  0  0  0  0  0  0  0  0
    1.1132    2.9308    3.1024 C   0  0  0  0  0  0  0  0  0  0  0  0
    0.9397    4.0206    3.2202 H   0  0  0  0  0  0  0  0  0  0  0  0
    2.0457    2.8016    2.5207 H   0  0  0  0  0  0  0  0  0  0  0  0
    1.2764    2.5173    4.1186 H   0  0  0  0  0  0  0  0  0  0  0  0
   -1.4082    2.5248    3.2040 C   0  0  0  0  0  0  0  0  0  0  0  0
   -1.3182    2.1942    4.2578 H   0  0  0  0  0  0  0  0  0  0  0  0
   -2.2515    1.9828    2.7383 H   0  0  0  0  0  0  0  0  0  0  0  0
   -1.6460    3.6084    3.2124 H   0  0  0  0  0  0  0  0  0  0  0  0
  1  6  1  0  0  0  0
  2  6  1  0  0  0  0
  3 29  1  0  0  0  0
  3 37  1  0  0  0  0
  4 41  1  0  0  0  0
  4 36  1  0  0  0  0
  5  1  1  1  0  0  0
  6 66  1  0  0  0  0
  6 56  1  0  0  0  0
  7  1  1  0  0  0  0
  7  8  1  0  0  0  0
  8  9  1  0  0  0  0
 10  8  2  0  0  0  0
 10 11  1  0  0  0  0
 12 10  1  0  0  0  0
 13 12  1  0  0  0  0
 14 16  1  0  0  0  0
 14 12  2  0  0  0  0
 15 14  1  0  0  0  0
 16  7  2  0  0  0  0
 17 16  1  0  0  0  0
 18  5  1  0  0  0  0
 19 18  1  0  0  0  0
 19 28  1  0  0  0  0
 20 19  2  0  0  0  0
 21 20  1  0  0  0  0
 22 24  2  0  0  0  0
 22 20  1  0  0  0  0
 23 22  1  0  0  0  0
 24 26  1  0  0  0  0
 25 24  1  0  0  0  0
 26 27  1  0  0  0  0
 26 18  2  0  0  0  0
 28 36  2  0  0  0  0
 28 29  1  0  0  0  0
 29 30  2  0  0  0  0
 30 32  1  0  0  0  0
 30 31  1  0  0  0  0
 32 33  1  0  0  0  0
 34 35  1  0  0  0  0
 34 32  2  0  0  0  0
 36 34  1  0  0  0  0
 37 40  1  0  0  0  0
 38 37  1  0  0  0  0
 39 37  1  0  0  0  0
 41 42  1  0  0  0  0
 43 41  1  0  0  0  0
 44 41  1  0  0  0  0
 45  5  1  0  0  0  0
 45 54  1  0  0  0  0
 46 45  2  0  0  0  0
 47 46  1  0  0  0  0
 48 46  1  0  0  0  0
 48 50  2  0  0  0  0
 49 48  1  0  0  0  0
 50 52  1  0  0  0  0
 51 50  1  0  0  0  0
 52 54  2  0  0  0  0
 52 53  1  0  0  0  0
 54 55  1  0  0  0  0
 56 57  1  0  0  0  0
 56 58  1  0  0  0  0
 58 60  1  0  0  0  0
 58 61  1  0  0  0  0
 59 58  1  0  0  0  0
 62 56  1  0  0  0  0
 62 63  1  0  0  0  0
 64 62  1  0  0  0  0
 65 62  1  0  0  0  0
 66 68  1  0  0  0  0
 66 72  1  0  0  0  0
 67 66  1  0  0  0  0
 68 69  1  0  0  0  0
 68 71  1  0  0  0  0
 70 68  1  0  0  0  0
 72 75  1  0  0  0  0
 72 73  1  0  0  0  0
 74 72  1  0  0  0  0
M  END
