1,14
 OpenBabel05122313063D

 41 43  0  0  1  0  0  0  0  0999 V2000
   -2.0910    0.1804   -0.0748 P   0  0  0  0  0  0  0  0  0  0  0  0
   -2.9473   -1.2165    0.7590 C   0  0  0  0  0  0  0  0  0  0  0  0
   -4.3223   -1.4299    0.5470 C   0  0  0  0  0  0  0  0  0  0  0  0
   -4.8830   -0.7456   -0.1060 H   0  0  0  0  0  0  0  0  0  0  0  0
   -4.9748   -2.5151    1.1481 C   0  0  0  0  0  0  0  0  0  0  0  0
   -6.0489   -2.6738    0.9691 H   0  0  0  0  0  0  0  0  0  0  0  0
   -4.2517   -3.3948    1.9652 C   0  0  0  0  0  0  0  0  0  0  0  0
   -4.7543   -4.2537    2.4357 H   0  0  0  0  0  0  0  0  0  0  0  0
   -2.8815   -3.1878    2.1803 C   0  0  0  0  0  0  0  0  0  0  0  0
   -2.2972   -3.8700    2.8114 H   0  0  0  0  0  0  0  0  0  0  0  0
   -2.2130   -2.1067    1.5822 C   0  0  0  0  0  0  0  0  0  0  0  0
   -0.7199   -1.8955    1.8401 C   0  0  2  0  0  0  0  0  0  0  0  0
   -0.5814   -0.9936    2.4990 H   0  0  0  0  0  0  0  0  0  0  0  0
   -0.0239   -1.6831    0.6553 O   0  0  0  0  0  1  0  0  0  0  0  0
   -0.2278   -3.0256    2.5100 O   0  0  0  0  0  0  0  0  0  0  0  0
    1.0823   -2.8696    3.0201 C   0  0  0  0  0  0  0  0  0  0  0  0
    1.3248   -3.7930    3.5798 H   0  0  0  0  0  0  0  0  0  0  0  0
    1.1573   -1.9951    3.7062 H   0  0  0  0  0  0  0  0  0  0  0  0
    1.8300   -2.7356    2.2079 H   0  0  0  0  0  0  0  0  0  0  0  0
   -1.9985    1.4774    1.2340 C   0  0  0  0  0  0  0  0  0  0  0  0
   -1.4786    2.7401    0.8764 C   0  0  0  0  0  0  0  0  0  0  0  0
   -1.1811    2.9354   -0.1639 H   0  0  0  0  0  0  0  0  0  0  0  0
   -1.3311    3.7444    1.8425 C   0  0  0  0  0  0  0  0  0  0  0  0
   -0.9149    4.7195    1.5488 H   0  0  0  0  0  0  0  0  0  0  0  0
   -1.6956    3.4969    3.1774 C   0  0  0  0  0  0  0  0  0  0  0  0
   -1.5691    4.2816    3.9386 H   0  0  0  0  0  0  0  0  0  0  0  0
   -2.2282    2.2483    3.5353 C   0  0  0  0  0  0  0  0  0  0  0  0
   -2.5288    2.0533    4.5762 H   0  0  0  0  0  0  0  0  0  0  0  0
   -2.3878    1.2421    2.5675 C   0  0  0  0  0  0  0  0  0  0  0  0
   -2.8156    0.2685    2.8495 H   0  0  0  0  0  0  0  0  0  0  0  0
   -3.3129    0.8944   -1.2512 C   0  0  0  0  0  0  0  0  0  0  0  0
   -4.2107    1.9040   -0.8428 C   0  0  0  0  0  0  0  0  0  0  0  0
   -4.1790    2.2881    0.1873 H   0  0  0  0  0  0  0  0  0  0  0  0
   -5.1469    2.4222   -1.7498 C   0  0  0  0  0  0  0  0  0  0  0  0
   -5.8431    3.2097   -1.4230 H   0  0  0  0  0  0  0  0  0  0  0  0
   -5.1937    1.9389   -3.0670 C   0  0  0  0  0  0  0  0  0  0  0  0
   -5.9261    2.3496   -3.7789 H   0  0  0  0  0  0  0  0  0  0  0  0
   -4.3056    0.9303   -3.4725 C   0  0  0  0  0  0  0  0  0  0  0  0
   -4.3398    0.5441   -4.5024 H   0  0  0  0  0  0  0  0  0  0  0  0
   -3.3660    0.4054   -2.5731 C   0  0  0  0  0  0  0  0  0  0  0  0
   -2.6882   -0.4061   -2.8801 H   0  0  0  0  0  0  0  0  0  0  0  0
  1  2  1  0  0  0  0
  1 20  1  0  0  0  0
  2 11  1  0  0  0  0
  3  2  2  0  0  0  0
  3  5  1  0  0  0  0
  4  3  1  0  0  0  0
  5  7  2  0  0  0  0
  6  5  1  0  0  0  0
  7  9  1  0  0  0  0
  7  8  1  0  0  0  0
  9 10  1  0  0  0  0
 11 12  1  0  0  0  0
 11  9  2  0  0  0  0
 12 13  1  1  0  0  0
 12 15  1  0  0  0  0
 14 12  1  0  0  0  0
 15 16  1  0  0  0  0
 16 17  1  0  0  0  0
 16 18  1  0  0  0  0
 19 16  1  0  0  0  0
 20 29  1  0  0  0  0
 21 20  2  0  0  0  0
 21 23  1  0  0  0  0
 22 21  1  0  0  0  0
 23 25  2  0  0  0  0
 24 23  1  0  0  0  0
 25 27  1  0  0  0  0
 25 26  1  0  0  0  0
 27 28  1  0  0  0  0
 29 30  1  0  0  0  0
 29 27  2  0  0  0  0
 31 32  1  0  0  0  0
 31  1  1  0  0  0  0
 32 33  1  0  0  0  0
 34 35  1  0  0  0  0
 34 32  2  0  0  0  0
 36 34  1  0  0  0  0
 37 36  1  0  0  0  0
 38 36  2  0  0  0  0
 38 40  1  0  0  0  0
 39 38  1  0  0  0  0
 40 31  2  0  0  0  0
 41 40  1  0  0  0  0
M  END
