1,2
 OpenBabel05122313063D

 34 34  0  0  0  0  0  0  0  0999 V2000
   -0.9067    1.0010    0.1738 P   0  0  0  0  0  0  0  0  0  0  0  0
    0.1442   -1.1592   -1.7750 O   0  0  0  0  0  1  0  0  0  0  0  0
   -2.2634   -0.2451   -0.0095 C   0  0  0  0  0  0  0  0  0  0  0  0
   -3.4557   -0.1194    0.7216 C   0  0  0  0  0  0  0  0  0  0  0  0
   -3.5616    0.6893    1.4578 H   0  0  0  0  0  0  0  0  0  0  0  0
   -4.5265   -1.0163    0.5531 C   0  0  0  0  0  0  0  0  0  0  0  0
   -5.4360   -0.8950    1.1606 H   0  0  0  0  0  0  0  0  0  0  0  0
   -4.4378   -2.0500   -0.3880 C   0  0  0  0  0  0  0  0  0  0  0  0
   -5.2746   -2.7485   -0.5340 H   0  0  0  0  0  0  0  0  0  0  0  0
   -3.2690   -2.1802   -1.1435 C   0  0  0  0  0  0  0  0  0  0  0  0
   -3.1847   -2.9850   -1.8908 H   0  0  0  0  0  0  0  0  0  0  0  0
   -2.1656   -1.3134   -0.9565 C   0  0  0  0  0  0  0  0  0  0  0  0
   -1.0109   -1.6162   -1.8111 C   0  0  0  0  0  3  0  0  0  0  0  0
   -1.1862    1.8154    1.8377 C   0  0  0  0  0  0  0  0  0  0  0  0
   -2.2502    2.1368    1.8468 H   0  0  0  0  0  0  0  0  0  0  0  0
   -0.9435    0.8446    2.9976 C   0  0  0  0  0  0  0  0  0  0  0  0
    0.1129    0.5169    3.0344 H   0  0  0  0  0  0  0  0  0  0  0  0
   -1.5559   -0.0739    2.9188 H   0  0  0  0  0  0  0  0  0  0  0  0
   -1.1851    1.3502    3.9556 H   0  0  0  0  0  0  0  0  0  0  0  0
   -0.3100    3.0718    1.9475 C   0  0  0  0  0  0  0  0  0  0  0  0
   -0.4902    3.5585    2.9279 H   0  0  0  0  0  0  0  0  0  0  0  0
   -0.5279    3.8201    1.1605 H   0  0  0  0  0  0  0  0  0  0  0  0
    0.7669    2.8213    1.8979 H   0  0  0  0  0  0  0  0  0  0  0  0
   -1.4252    2.3230   -1.0762 C   0  0  0  0  0  0  0  0  0  0  0  0
   -0.5841    3.0478   -1.0084 H   0  0  0  0  0  0  0  0  0  0  0  0
   -2.7416    3.0281   -0.7409 C   0  0  0  0  0  0  0  0  0  0  0  0
   -2.9613    3.7961   -1.5114 H   0  0  0  0  0  0  0  0  0  0  0  0
   -2.7184    3.5446    0.2383 H   0  0  0  0  0  0  0  0  0  0  0  0
   -3.5917    2.3150   -0.7369 H   0  0  0  0  0  0  0  0  0  0  0  0
   -1.4432    1.7528   -2.4991 C   0  0  0  0  0  0  0  0  0  0  0  0
   -2.2710    1.0258   -2.6316 H   0  0  0  0  0  0  0  0  0  0  0  0
   -0.4921    1.2542   -2.7649 H   0  0  0  0  0  0  0  0  0  0  0  0
   -1.6058    2.5739   -3.2268 H   0  0  0  0  0  0  0  0  0  0  0  0
   -1.2218   -2.3670   -2.6124 H   0  0  0  0  0  0  0  0  0  0  0  0
  1 14  1  0  0  0  0
  3  1  1  0  0  0  0
  3  4  1  0  0  0  0
  4  5  1  0  0  0  0
  6  4  2  0  0  0  0
  6  7  1  0  0  0  0
  8  6  1  0  0  0  0
  9  8  1  0  0  0  0
 10 12  1  0  0  0  0
 10  8  2  0  0  0  0
 11 10  1  0  0  0  0
 12  3  2  0  0  0  0
 13  2  1  0  0  0  0
 13 12  1  0  0  0  0
 14 15  1  0  0  0  0
 14 20  1  0  0  0  0
 14 16  1  0  0  0  0
 16 17  1  0  0  0  0
 16 19  1  0  0  0  0
 18 16  1  0  0  0  0
 20 21  1  0  0  0  0
 22 20  1  0  0  0  0
 23 20  1  0  0  0  0
 24 25  1  0  0  0  0
 24 26  1  0  0  0  0
 24  1  1  0  0  0  0
 26 29  1  0  0  0  0
 26 28  1  0  0  0  0
 27 26  1  0  0  0  0
 30 24  1  0  0  0  0
 31 30  1  0  0  0  0
 32 30  1  0  0  0  0
 33 30  1  0  0  0  0
 34 13  1  0  0  0  0
M  END
