1,3
 OpenBabel05122313063D

 47 47  0  0  0  0  0  0  0  0999 V2000
   -1.2926   -0.5865    0.0727 P   0  0  0  0  0  0  0  0  0  0  0  0
    0.3273    2.4342   -0.4822 S   0  0  0  0  0  0  0  0  0  0  0  0
    1.0128    1.2183   -1.1619 O   0  0  0  0  0  1  0  0  0  0  0  0
    0.4476    2.3867    1.0104 O   0  0  0  0  0  1  0  0  0  0  0  0
   -2.1762    1.4133    2.8783 C   0  0  0  0  0  0  0  0  0  0  0  0
   -3.2517    1.3142    3.1322 H   0  0  0  0  0  0  0  0  0  0  0  0
   -2.0910    1.9708    1.9272 H   0  0  0  0  0  0  0  0  0  0  0  0
   -1.7076    2.0451    3.6583 H   0  0  0  0  0  0  0  0  0  0  0  0
    0.6995    3.6971   -1.1550 O   0  0  0  0  0  1  0  0  0  0  0  0
   -2.0341   -1.8687   -1.0991 C   0  0  0  0  0  0  0  0  0  0  0  0
   -3.1197   -1.8934   -0.8566 H   0  0  0  0  0  0  0  0  0  0  0  0
   -1.4451    2.1727   -0.8049 C   0  0  0  0  0  0  0  0  0  0  0  0
   -2.1236    0.9619   -0.5285 C   0  0  0  0  0  0  0  0  0  0  0  0
   -3.5198    3.2340   -1.5096 C   0  0  0  0  0  0  0  0  0  0  0  0
   -4.0547    4.1174   -1.8900 H   0  0  0  0  0  0  0  0  0  0  0  0
   -2.1376    3.2927   -1.2936 C   0  0  0  0  0  0  0  0  0  0  0  0
   -1.5548    4.2019   -1.5012 H   0  0  0  0  0  0  0  0  0  0  0  0
   -3.5157    0.9221   -0.7736 C   0  0  0  0  0  0  0  0  0  0  0  0
   -4.0739   -0.0082   -0.6006 H   0  0  0  0  0  0  0  0  0  0  0  0
   -1.9142   -1.4472   -2.5800 C   0  0  0  0  0  0  0  0  0  0  0  0
   -2.4574   -2.2093   -3.1795 H   0  0  0  0  0  0  0  0  0  0  0  0
   -2.4786   -0.5046   -2.7298 H   0  0  0  0  0  0  0  0  0  0  0  0
   -1.4631   -3.2658   -0.7946 C   0  0  0  0  0  0  0  0  0  0  0  0
   -0.3681   -3.2581   -0.9762 H   0  0  0  0  0  0  0  0  0  0  0  0
   -1.5824   -3.4770    0.2893 H   0  0  0  0  0  0  0  0  0  0  0  0
   -0.4956   -1.2745   -3.1219 C   0  0  0  0  0  0  0  0  0  0  0  0
    0.1153   -2.1909   -2.9900 H   0  0  0  0  0  0  0  0  0  0  0  0
    0.0321   -0.4390   -2.6185 H   0  0  0  0  0  0  0  0  0  0  0  0
   -0.5228   -1.0489   -4.2068 H   0  0  0  0  0  0  0  0  0  0  0  0
   -2.0103   -0.9520    1.7722 C   0  0  0  0  0  0  0  0  0  0  0  0
   -1.5109   -1.9228    1.9881 H   0  0  0  0  0  0  0  0  0  0  0  0
   -3.5273   -1.1834    1.8535 C   0  0  0  0  0  0  0  0  0  0  0  0
   -4.0646   -0.2344    1.6502 H   0  0  0  0  0  0  0  0  0  0  0  0
   -3.8406   -1.8936    1.0588 H   0  0  0  0  0  0  0  0  0  0  0  0
   -3.9743   -1.7404    3.2090 C   0  0  0  0  0  0  0  0  0  0  0  0
   -3.7844   -1.0238    4.0329 H   0  0  0  0  0  0  0  0  0  0  0  0
   -3.4377   -2.6805    3.4551 H   0  0  0  0  0  0  0  0  0  0  0  0
   -5.0601   -1.9637    3.2079 H   0  0  0  0  0  0  0  0  0  0  0  0
   -2.1221   -4.3948   -1.5906 C   0  0  0  0  0  0  0  0  0  0  0  0
   -1.9238   -4.3102   -2.6777 H   0  0  0  0  0  0  0  0  0  0  0  0
   -3.2238   -4.4010   -1.4521 H   0  0  0  0  0  0  0  0  0  0  0  0
   -1.7388   -5.3818   -1.2627 H   0  0  0  0  0  0  0  0  0  0  0  0
   -4.2115    2.0429   -1.2470 C   0  0  0  0  0  0  0  0  0  0  0  0
   -5.2967    1.9778   -1.4175 H   0  0  0  0  0  0  0  0  0  0  0  0
   -1.4642    0.0623    2.8081 C   0  0  0  0  0  0  0  0  0  0  0  0
   -1.5003   -0.4288    3.8048 H   0  0  0  0  0  0  0  0  0  0  0  0
   -0.3899    0.2352    2.5900 H   0  0  0  0  0  0  0  0  0  0  0  0
  1 30  1  0  0  0  0
  2  4  1  0  0  0  0
  3  2  1  0  0  0  0
  5  6  1  0  0  0  0
  5  8  1  0  0  0  0
  7  5  1  0  0  0  0
  9  2  1  0  0  0  0
 10 11  1  0  0  0  0
 10 23  1  0  0  0  0
 10  1  1  0  0  0  0
 12 13  1  0  0  0  0
 12  2  1  0  0  0  0
 13  1  1  0  0  0  0
 14 16  1  0  0  0  0
 14 43  2  0  0  0  0
 15 14  1  0  0  0  0
 16 12  2  0  0  0  0
 17 16  1  0  0  0  0
 18 19  1  0  0  0  0
 18 13  2  0  0  0  0
 20 10  1  0  0  0  0
 21 20  1  0  0  0  0
 22 20  1  0  0  0  0
 23 25  1  0  0  0  0
 24 23  1  0  0  0  0
 26 27  1  0  0  0  0
 26 28  1  0  0  0  0
 26 20  1  0  0  0  0
 29 26  1  0  0  0  0
 30 32  1  0  0  0  0
 30 31  1  0  0  0  0
 30 45  1  0  0  0  0
 32 35  1  0  0  0  0
 33 32  1  0  0  0  0
 34 32  1  0  0  0  0
 35 37  1  0  0  0  0
 35 36  1  0  0  0  0
 38 35  1  0  0  0  0
 39 41  1  0  0  0  0
 39 42  1  0  0  0  0
 39 23  1  0  0  0  0
 40 39  1  0  0  0  0
 43 18  1  0  0  0  0
 44 43  1  0  0  0  0
 45  5  1  0  0  0  0
 45 46  1  0  0  0  0
 47 45  1  0  0  0  0
M  END
