1,2
 OpenBabel05122313063D

 30 31  0  0  0  0  0  0  0  0999 V2000
    0.9363   -0.3105   -1.4883 P   0  0  0  0  0  0  0  0  0  0  0  0
    0.7782   -3.1750   -1.2060 O   0  0  0  0  0  1  0  0  0  0  0  0
    2.4100    0.6462   -0.9561 C   0  0  0  0  0  0  0  0  0  0  0  0
   -0.1747    0.9156   -2.2819 C   0  0  0  0  0  0  0  0  0  0  0  0
    1.5452   -1.4888   -2.7889 C   0  0  0  0  0  0  0  0  0  0  0  0
    1.8437   -2.7927   -2.0178 C   0  0  0  0  0  0  0  0  0  0  0  0
    2.9833    0.3486    0.2949 C   0  0  0  0  0  0  0  0  0  0  0  0
    3.0032    1.6259   -1.7809 C   0  0  0  0  0  0  0  0  0  0  0  0
   -1.1146    0.4837   -3.2418 C   0  0  0  0  0  0  0  0  0  0  0  0
   -0.2191    2.2520   -1.8328 C   0  0  0  0  0  0  0  0  0  0  0  0
    2.4126   -1.0648   -3.3366 H   0  0  0  0  0  0  0  0  0  0  0  0
    0.7132   -1.6584   -3.5021 H   0  0  0  0  0  0  0  0  0  0  0  0
    2.8045   -2.6494   -1.4522 H   0  0  0  0  0  0  0  0  0  0  0  0
    2.0422   -3.6032   -2.7619 H   0  0  0  0  0  0  0  0  0  0  0  0
    4.1289    1.0345    0.7257 C   0  0  0  0  0  0  0  0  0  0  0  0
    2.5134   -0.4239    0.9236 H   0  0  0  0  0  0  0  0  0  0  0  0
    4.1468    2.3100   -1.3457 C   0  0  0  0  0  0  0  0  0  0  0  0
    2.5637    1.8601   -2.7632 H   0  0  0  0  0  0  0  0  0  0  0  0
   -2.0678    1.3760   -3.7523 C   0  0  0  0  0  0  0  0  0  0  0  0
   -1.1159   -0.5640   -3.5788 H   0  0  0  0  0  0  0  0  0  0  0  0
   -1.1826    3.1384   -2.3368 C   0  0  0  0  0  0  0  0  0  0  0  0
    0.5068    2.5993   -1.0831 H   0  0  0  0  0  0  0  0  0  0  0  0
    4.7083    2.0176   -0.0905 C   0  0  0  0  0  0  0  0  0  0  0  0
    4.5648    0.8018    1.7087 H   0  0  0  0  0  0  0  0  0  0  0  0
    4.6044    3.0763   -1.9899 H   0  0  0  0  0  0  0  0  0  0  0  0
   -2.1076    2.7045   -3.2985 C   0  0  0  0  0  0  0  0  0  0  0  0
   -2.7911    1.0271   -4.5051 H   0  0  0  0  0  0  0  0  0  0  0  0
   -1.2102    4.1770   -1.9736 H   0  0  0  0  0  0  0  0  0  0  0  0
    5.6042    2.5593    0.2495 H   0  0  0  0  0  0  0  0  0  0  0  0
   -2.8628    3.4010   -3.6927 H   0  0  0  0  0  0  0  0  0  0  0  0
  1  3  1  0  0  0  0
  3  7  1  0  0  0  0
  4 10  1  0  0  0  0
  4  1  1  0  0  0  0
  5  6  1  0  0  0  0
  5  1  1  0  0  0  0
  6 13  1  0  0  0  0
  6  2  1  0  0  0  0
  7 15  2  0  0  0  0
  7 16  1  0  0  0  0
  8 17  1  0  0  0  0
  8  3  2  0  0  0  0
  9  4  2  0  0  0  0
 10 22  1  0  0  0  0
 11  5  1  0  0  0  0
 12  5  1  0  0  0  0
 14  6  1  0  0  0  0
 15 24  1  0  0  0  0
 17 23  2  0  0  0  0
 18  8  1  0  0  0  0
 19 26  2  0  0  0  0
 19  9  1  0  0  0  0
 20  9  1  0  0  0  0
 21 28  1  0  0  0  0
 21 10  2  0  0  0  0
 23 29  1  0  0  0  0
 23 15  1  0  0  0  0
 25 17  1  0  0  0  0
 26 21  1  0  0  0  0
 27 19  1  0  0  0  0
 30 26  1  0  0  0  0
M  END
