1,3
 OpenBabel05122313063D

 44 46  0  0  0  0  0  0  0  0999 V2000
   -0.1214    0.1149   -0.2113 P   0  0  0  0  0  0  0  0  0  0  0  0
    0.8536   -3.7504    1.6695 O   0  5  0  0  0  0  0  0  0  0  0  0
    1.4531   -2.1810    0.1759 O   0  0  0  0  0  0  0  0  0  0  0  0
   -3.1420   -0.2776   -0.0658 O   0  0  0  0  0  0  0  0  0  0  0  0
    0.6311    2.4836    1.2668 O   0  0  0  0  0  0  0  0  0  0  0  0
   -0.5468   -0.3740    1.5181 C   0  0  0  0  0  0  0  0  0  0  0  0
    0.0004   -1.5713    2.0384 C   0  0  0  0  0  0  0  0  0  0  0  0
   -0.3082   -1.9247    3.3684 C   0  0  0  0  0  0  0  0  0  0  0  0
    0.1016   -2.8839    3.7195 H   0  0  0  0  0  0  0  0  0  0  0  0
   -1.1080   -1.1104    4.1776 C   0  0  0  0  0  0  0  0  0  0  0  0
   -1.3182   -1.4003    5.2201 H   0  0  0  0  0  0  0  0  0  0  0  0
   -1.6566    0.0714    3.6480 C   0  0  0  0  0  0  0  0  0  0  0  0
   -2.3023    0.7151    4.2672 H   0  0  0  0  0  0  0  0  0  0  0  0
   -1.3861    0.4264    2.3208 C   0  0  0  0  0  0  0  0  0  0  0  0
   -1.8366    1.3340    1.8922 H   0  0  0  0  0  0  0  0  0  0  0  0
    0.8448   -2.5868    1.2351 C   0  0  0  0  0  0  0  0  0  0  0  0
   -1.2107   -0.9688   -1.2379 C   0  0  0  0  0  0  0  0  0  0  0  0
   -0.6026   -1.7822   -2.2092 C   0  0  0  0  0  0  0  0  0  0  0  0
    0.4900   -1.7034   -2.3300 H   0  0  0  0  0  0  0  0  0  0  0  0
   -1.3568   -2.6886   -2.9718 C   0  0  0  0  0  0  0  0  0  0  0  0
   -0.8596   -3.3220   -3.7211 H   0  0  0  0  0  0  0  0  0  0  0  0
   -2.7363   -2.7936   -2.7524 C   0  0  0  0  0  0  0  0  0  0  0  0
   -3.3389   -3.5069   -3.3369 H   0  0  0  0  0  0  0  0  0  0  0  0
   -3.3690   -2.0016   -1.7797 C   0  0  0  0  0  0  0  0  0  0  0  0
   -4.4509   -2.1002   -1.6156 H   0  0  0  0  0  0  0  0  0  0  0  0
   -2.6088   -1.0897   -1.0202 C   0  0  0  0  0  0  0  0  0  0  0  0
   -4.4823   -0.4595    0.3266 C   0  0  0  0  0  0  0  0  0  0  0  0
   -5.1973   -0.2063   -0.4903 H   0  0  0  0  0  0  0  0  0  0  0  0
   -4.6773   -1.5032    0.6610 H   0  0  0  0  0  0  0  0  0  0  0  0
   -4.6504    0.2263    1.1784 H   0  0  0  0  0  0  0  0  0  0  0  0
   -0.8163    1.8040   -0.4496 C   0  0  0  0  0  0  0  0  0  0  0  0
   -0.2390    2.8658    0.3004 C   0  0  0  0  0  0  0  0  0  0  0  0
    1.4362    3.4471    1.9085 C   0  0  0  0  0  0  0  0  0  0  0  0
    2.0192    4.0439    1.1720 H   0  0  0  0  0  0  0  0  0  0  0  0
    0.8337    4.1367    2.5435 H   0  0  0  0  0  0  0  0  0  0  0  0
    2.1378    2.8811    2.5484 H   0  0  0  0  0  0  0  0  0  0  0  0
   -0.5799    4.2052    0.0283 C   0  0  0  0  0  0  0  0  0  0  0  0
   -0.1278    5.0216    0.6079 H   0  0  0  0  0  0  0  0  0  0  0  0
   -1.4988    4.4948   -0.9936 C   0  0  0  0  0  0  0  0  0  0  0  0
   -1.7607    5.5441   -1.2016 H   0  0  0  0  0  0  0  0  0  0  0  0
   -2.0690    3.4605   -1.7486 C   0  0  0  0  0  0  0  0  0  0  0  0
   -2.7801    3.6876   -2.5573 H   0  0  0  0  0  0  0  0  0  0  0  0
   -1.7200    2.1271   -1.4750 C   0  0  0  0  0  0  0  0  0  0  0  0
   -2.1450    1.3146   -2.0826 H   0  0  0  0  0  0  0  0  0  0  0  0
  1  6  1  0  0  0  0
  3 16  2  0  0  0  0
  4 27  1  0  0  0  0
  5 33  1  0  0  0  0
  6  7  2  0  0  0  0
  6 14  1  0  0  0  0
  7  8  1  0  0  0  0
  8  9  1  0  0  0  0
  8 10  2  0  0  0  0
 10 11  1  0  0  0  0
 12 10  1  0  0  0  0
 12 13  1  0  0  0  0
 14 12  2  0  0  0  0
 15 14  1  0  0  0  0
 16  2  1  0  0  0  0
 16  7  1  0  0  0  0
 17 26  1  0  0  0  0
 17  1  1  0  0  0  0
 18 17  2  0  0  0  0
 19 18  1  0  0  0  0
 20 22  2  0  0  0  0
 20 18  1  0  0  0  0
 21 20  1  0  0  0  0
 22 24  1  0  0  0  0
 23 22  1  0  0  0  0
 24 25  1  0  0  0  0
 24 26  2  0  0  0  0
 26  4  1  0  0  0  0
 27 29  1  0  0  0  0
 27 30  1  0  0  0  0
 28 27  1  0  0  0  0
 31  1  1  0  0  0  0
 31 32  1  0  0  0  0
 32  5  1  0  0  0  0
 33 35  1  0  0  0  0
 33 36  1  0  0  0  0
 34 33  1  0  0  0  0
 37 32  2  0  0  0  0
 37 38  1  0  0  0  0
 39 37  1  0  0  0  0
 40 39  1  0  0  0  0
 41 43  1  0  0  0  0
 41 39  2  0  0  0  0
 42 41  1  0  0  0  0
 43 31  2  0  0  0  0
 44 43  1  0  0  0  0
M  CHG  1   2  -1
M  END
