1,3
 OpenBabel05122313063D

 55 58  0  0  0  0  0  0  0  0999 V2000
   -0.1935    1.0985   -0.0182 P   0  0  0  0  0  0  0  0  0  0  0  0
    0.7918   -2.1869   -0.3328 S   0  0  0  0  0  0  0  0  0  0  0  0
   -0.4442   -1.6768   -1.1246 O   0  0  0  0  0  1  0  0  0  0  0  0
    1.3515   -3.3582   -1.0464 O   0  0  0  0  0  1  0  0  0  0  0  0
    0.5114   -2.3498    1.1287 O   0  0  0  0  0  1  0  0  0  0  0  0
    2.4485    1.5831   -0.7514 C   0  0  0  0  0  0  0  0  0  0  0  0
    2.0885    2.6169   -0.8377 H   0  0  0  0  0  0  0  0  0  0  0  0
    1.5171    0.5342   -0.4756 C   0  0  0  0  0  0  0  0  0  0  0  0
    4.3084    0.0124   -0.7809 C   0  0  0  0  0  0  0  0  0  0  0  0
   -0.6524    1.6508   -2.7025 C   0  0  0  0  0  0  0  0  0  0  0  0
    0.3180    1.1568   -2.9143 H   0  0  0  0  0  0  0  0  0  0  0  0
   -1.4078    0.8349   -2.6536 H   0  0  0  0  0  0  0  0  0  0  0  0
    0.0430    1.9815    1.6070 C   0  0  0  0  0  0  0  0  0  0  0  0
   -1.0060    2.2438    1.8722 H   0  0  0  0  0  0  0  0  0  0  0  0
    1.9813   -0.7910   -0.4579 C   0  0  0  0  0  0  0  0  0  0  0  0
   -0.6090    2.3518   -1.3311 C   0  0  0  0  0  0  0  0  0  0  0  0
    0.2023    3.1138   -1.3422 H   0  0  0  0  0  0  0  0  0  0  0  0
    0.8754    3.2719    1.6255 C   0  0  0  0  0  0  0  0  0  0  0  0
    0.5002    3.9995    0.8750 H   0  0  0  0  0  0  0  0  0  0  0  0
    1.9267    3.0376    1.3550 H   0  0  0  0  0  0  0  0  0  0  0  0
    3.9500   -2.3857   -0.3599 C   0  0  0  0  0  0  0  0  0  0  0  0
    3.2770   -3.2303   -0.1739 H   0  0  0  0  0  0  0  0  0  0  0  0
   -2.3326    3.3674   -3.5221 C   0  0  0  0  0  0  0  0  0  0  0  0
   -2.5581    4.1040   -4.3212 H   0  0  0  0  0  0  0  0  0  0  0  0
   -3.1665    2.6303   -3.5300 H   0  0  0  0  0  0  0  0  0  0  0  0
    3.3918   -1.0802   -0.5385 C   0  0  0  0  0  0  0  0  0  0  0  0
   -1.9383    3.0669   -1.0349 C   0  0  0  0  0  0  0  0  0  0  0  0
   -2.7390    2.3002   -0.9517 H   0  0  0  0  0  0  0  0  0  0  0  0
   -1.8958    3.5900   -0.0564 H   0  0  0  0  0  0  0  0  0  0  0  0
    3.7954    1.3299   -0.9215 C   0  0  0  0  0  0  0  0  0  0  0  0
    4.4910    2.1536   -1.1445 H   0  0  0  0  0  0  0  0  0  0  0  0
    5.3194   -2.5916   -0.4283 C   0  0  0  0  0  0  0  0  0  0  0  0
    5.7179   -3.6059   -0.2751 H   0  0  0  0  0  0  0  0  0  0  0  0
   -1.0160    2.6386   -3.8185 C   0  0  0  0  0  0  0  0  0  0  0  0
   -0.1980    3.3866   -3.9255 H   0  0  0  0  0  0  0  0  0  0  0  0
   -1.0757    2.1023   -4.7883 H   0  0  0  0  0  0  0  0  0  0  0  0
    0.5520    0.9734    2.6556 C   0  0  0  0  0  0  0  0  0  0  0  0
   -0.0636    0.0508    2.6281 H   0  0  0  0  0  0  0  0  0  0  0  0
    1.5837    0.6591    2.3831 H   0  0  0  0  0  0  0  0  0  0  0  0
    0.5532    1.5990    4.0563 C   0  0  0  0  0  0  0  0  0  0  0  0
   -0.4976    1.8005    4.3641 H   0  0  0  0  0  0  0  0  0  0  0  0
    0.9604    0.8740    4.7912 H   0  0  0  0  0  0  0  0  0  0  0  0
    5.7083   -0.2409   -0.8682 C   0  0  0  0  0  0  0  0  0  0  0  0
    6.3823    0.6073   -1.0646 H   0  0  0  0  0  0  0  0  0  0  0  0
    0.8541    3.8977    3.0297 C   0  0  0  0  0  0  0  0  0  0  0  0
    1.4680    4.8226    3.0391 H   0  0  0  0  0  0  0  0  0  0  0  0
   -0.1864    4.2093    3.2742 H   0  0  0  0  0  0  0  0  0  0  0  0
    1.3521    2.9083    4.0913 C   0  0  0  0  0  0  0  0  0  0  0  0
    2.4260    2.6843    3.9017 H   0  0  0  0  0  0  0  0  0  0  0  0
    1.3025    3.3678    5.1006 H   0  0  0  0  0  0  0  0  0  0  0  0
    6.2099   -1.5196   -0.6951 C   0  0  0  0  0  0  0  0  0  0  0  0
    7.2929   -1.7048   -0.7572 H   0  0  0  0  0  0  0  0  0  0  0  0
   -2.2898    4.0583   -2.1535 C   0  0  0  0  0  0  0  0  0  0  0  0
   -3.2623    4.5444   -1.9302 H   0  0  0  0  0  0  0  0  0  0  0  0
   -1.5304    4.8725   -2.1749 H   0  0  0  0  0  0  0  0  0  0  0  0
  1 13  1  0  0  0  0
  2  5  1  0  0  0  0
  3  2  1  0  0  0  0
  4  2  1  0  0  0  0
  6  8  1  0  0  0  0
  7  6  1  0  0  0  0
  8 15  2  0  0  0  0
  8  1  1  0  0  0  0
  9 26  1  0  0  0  0
 10 12  1  0  0  0  0
 10 16  1  0  0  0  0
 11 10  1  0  0  0  0
 13 18  1  0  0  0  0
 13 14  1  0  0  0  0
 13 37  1  0  0  0  0
 15  2  1  0  0  0  0
 16 27  1  0  0  0  0
 16  1  1  0  0  0  0
 17 16  1  0  0  0  0
 18 45  1  0  0  0  0
 19 18  1  0  0  0  0
 20 18  1  0  0  0  0
 21 22  1  0  0  0  0
 23 53  1  0  0  0  0
 24 23  1  0  0  0  0
 25 23  1  0  0  0  0
 26 15  1  0  0  0  0
 26 21  2  0  0  0  0
 27 28  1  0  0  0  0
 27 29  1  0  0  0  0
 30  9  1  0  0  0  0
 30  6  2  0  0  0  0
 31 30  1  0  0  0  0
 32 21  1  0  0  0  0
 32 33  1  0  0  0  0
 34 23  1  0  0  0  0
 34 10  1  0  0  0  0
 35 34  1  0  0  0  0
 36 34  1  0  0  0  0
 37 40  1  0  0  0  0
 38 37  1  0  0  0  0
 39 37  1  0  0  0  0
 40 48  1  0  0  0  0
 40 41  1  0  0  0  0
 40 42  1  0  0  0  0
 43  9  2  0  0  0  0
 43 51  1  0  0  0  0
 44 43  1  0  0  0  0
 45 46  1  0  0  0  0
 45 47  1  0  0  0  0
 45 48  1  0  0  0  0
 48 50  1  0  0  0  0
 49 48  1  0  0  0  0
 51 32  2  0  0  0  0
 52 51  1  0  0  0  0
 53 54  1  0  0  0  0
 53 27  1  0  0  0  0
 55 53  1  0  0  0  0
M  END
