1,2
 OpenBabel05122313063D

 60 62  0  0  0  0  0  0  0  0999 V2000
   -0.2975    0.5202    0.1721 P   0  0  0  0  0  0  0  0  0  0  0  0
   -0.6781   -2.1572   -0.9429 O   0  5  0  0  0  0  0  0  0  0  0  0
    4.2681   -0.6131    1.1747 O   0  0  0  0  0  0  0  0  0  0  0  0
    2.2628   -1.5509    1.7481 O   0  0  0  0  0  0  0  0  0  0  0  0
    3.0810    2.3823    0.2992 O   0  0  0  0  0  0  0  0  0  0  0  0
    4.5075    2.1509   -1.4757 O   0  0  0  0  0  0  0  0  0  0  0  0
    2.3811   -0.2998   -0.1288 N   0  0  0  0  0  0  0  0  0  0  0  0
    3.1310    0.4626   -1.0069 N   0  0  0  0  0  0  0  0  0  0  0  0
    1.0180   -0.5767   -0.4088 C   0  0  0  0  0  0  0  0  0  0  0  0
    0.5747   -1.8310   -0.8509 C   0  0  0  0  0  0  0  0  0  0  0  0
    1.5581   -2.9079   -1.1809 C   0  0  0  0  0  0  0  0  0  0  0  0
    1.3871   -4.1858   -0.6094 C   0  0  0  0  0  0  0  0  0  0  0  0
    2.3025   -5.2120   -0.8783 C   0  0  0  0  0  0  0  0  0  0  0  0
    3.3910   -4.9810   -1.7363 C   0  0  0  0  0  0  0  0  0  0  0  0
    3.5546   -3.7192   -2.3294 C   0  0  0  0  0  0  0  0  0  0  0  0
    2.6449   -2.6883   -2.0512 C   0  0  0  0  0  0  0  0  0  0  0  0
   -0.0364    2.1662   -0.5862 C   0  0  0  0  0  0  0  0  0  0  0  0
   -0.2080    3.3670    0.1270 C   0  0  0  0  0  0  0  0  0  0  0  0
   -0.0643    4.5997   -0.5282 C   0  0  0  0  0  0  0  0  0  0  0  0
    0.2481    4.6407   -1.8953 C   0  0  0  0  0  0  0  0  0  0  0  0
    0.4214    3.4423   -2.6099 C   0  0  0  0  0  0  0  0  0  0  0  0
    0.2781    2.2100   -1.9604 C   0  0  0  0  0  0  0  0  0  0  0  0
   -0.1012    0.7364    1.9842 C   0  0  0  0  0  0  0  0  0  0  0  0
   -1.0563    0.1573    2.8450 C   0  0  0  0  0  0  0  0  0  0  0  0
   -0.8676    0.1967    4.2347 C   0  0  0  0  0  0  0  0  0  0  0  0
    0.2763    0.8096    4.7715 C   0  0  0  0  0  0  0  0  0  0  0  0
    1.2272    1.3895    3.9147 C   0  0  0  0  0  0  0  0  0  0  0  0
    1.0450    1.3612    2.5236 C   0  0  0  0  0  0  0  0  0  0  0  0
    3.0833   -0.8135    0.9710 C   0  0  0  0  0  0  0  0  0  0  0  0
    2.8467   -2.0562    2.9616 C   0  0  0  0  0  0  0  0  0  0  0  0
    1.7509   -2.7717    3.7239 C   0  0  0  0  0  0  0  0  0  0  0  0
    3.5400    1.7298   -0.6229 C   0  0  0  0  0  0  0  0  0  0  0  0
    4.9732    3.5006   -1.2684 C   0  0  0  0  0  0  0  0  0  0  0  0
    4.0553    4.5193   -1.9232 C   0  0  0  0  0  0  0  0  0  0  0  0
    3.7993   -0.0566   -1.5886 H   0  0  0  0  0  0  0  0  0  0  0  0
    0.5286   -4.3544    0.0572 H   0  0  0  0  0  0  0  0  0  0  0  0
    2.1674   -6.2018   -0.4155 H   0  0  0  0  0  0  0  0  0  0  0  0
    4.1088   -5.7880   -1.9485 H   0  0  0  0  0  0  0  0  0  0  0  0
    4.3938   -3.5384   -3.0185 H   0  0  0  0  0  0  0  0  0  0  0  0
    2.7509   -1.7085   -2.5412 H   0  0  0  0  0  0  0  0  0  0  0  0
   -0.4371    3.3409    1.2025 H   0  0  0  0  0  0  0  0  0  0  0  0
   -0.1938    5.5349    0.0373 H   0  0  0  0  0  0  0  0  0  0  0  0
    0.3626    5.6088   -2.4064 H   0  0  0  0  0  0  0  0  0  0  0  0
    0.6734    3.4701   -3.6810 H   0  0  0  0  0  0  0  0  0  0  0  0
    0.4225    1.2666   -2.5097 H   0  0  0  0  0  0  0  0  0  0  0  0
   -1.9470   -0.3239    2.4105 H   0  0  0  0  0  0  0  0  0  0  0  0
   -1.6196   -0.2527    4.9012 H   0  0  0  0  0  0  0  0  0  0  0  0
    0.4258    0.8383    5.8619 H   0  0  0  0  0  0  0  0  0  0  0  0
    2.1252    1.8711    4.3314 H   0  0  0  0  0  0  0  0  0  0  0  0
    1.7974    1.8088    1.8543 H   0  0  0  0  0  0  0  0  0  0  0  0
    3.2679   -1.2052    3.5382 H   0  0  0  0  0  0  0  0  0  0  0  0
    3.6925   -2.7286    2.7035 H   0  0  0  0  0  0  0  0  0  0  0  0
    2.1525   -3.1851    4.6703 H   0  0  0  0  0  0  0  0  0  0  0  0
    0.9265   -2.0721    3.9660 H   0  0  0  0  0  0  0  0  0  0  0  0
    1.3367   -3.6076    3.1252 H   0  0  0  0  0  0  0  0  0  0  0  0
    5.9875    3.5143   -1.7133 H   0  0  0  0  0  0  0  0  0  0  0  0
    5.0543    3.6850   -0.1778 H   0  0  0  0  0  0  0  0  0  0  0  0
    4.4740    5.5393   -1.8038 H   0  0  0  0  0  0  0  0  0  0  0  0
    3.9426    4.3150   -3.0068 H   0  0  0  0  0  0  0  0  0  0  0  0
    3.0527    4.4971   -1.4542 H   0  0  0  0  0  0  0  0  0  0  0  0
  1 23  1  0  0  0  0
  2 10  1  0  0  0  0
  4 30  1  0  0  0  0
  6 33  1  0  0  0  0
  6 32  1  0  0  0  0
  7 29  1  0  0  0  0
  8 32  1  0  0  0  0
  8  7  1  0  0  0  0
  9  7  1  0  0  0  0
  9  1  1  0  0  0  0
 10  9  2  0  0  0  0
 11 10  1  0  0  0  0
 11 12  1  0  0  0  0
 12 36  1  0  0  0  0
 13 12  2  0  0  0  0
 13 37  1  0  0  0  0
 14 13  1  0  0  0  0
 15 16  1  0  0  0  0
 15 14  2  0  0  0  0
 16 11  2  0  0  0  0
 17 18  1  0  0  0  0
 17  1  1  0  0  0  0
 18 41  1  0  0  0  0
 19 42  1  0  0  0  0
 19 18  2  0  0  0  0
 20 19  1  0  0  0  0
 21 22  1  0  0  0  0
 21 20  2  0  0  0  0
 22 17  2  0  0  0  0
 23 28  2  0  0  0  0
 23 24  1  0  0  0  0
 24 25  2  0  0  0  0
 25 26  1  0  0  0  0
 25 47  1  0  0  0  0
 26 48  1  0  0  0  0
 27 49  1  0  0  0  0
 27 26  2  0  0  0  0
 28 27  1  0  0  0  0
 29  3  2  0  0  0  0
 29  4  1  0  0  0  0
 30 51  1  0  0  0  0
 30 31  1  0  0  0  0
 31 54  1  0  0  0  0
 31 53  1  0  0  0  0
 32  5  2  0  0  0  0
 33 57  1  0  0  0  0
 34 58  1  0  0  0  0
 34 60  1  0  0  0  0
 34 33  1  0  0  0  0
 35  8  1  0  0  0  0
 38 14  1  0  0  0  0
 39 15  1  0  0  0  0
 40 16  1  0  0  0  0
 43 20  1  0  0  0  0
 44 21  1  0  0  0  0
 45 22  1  0  0  0  0
 46 24  1  0  0  0  0
 50 28  1  0  0  0  0
 52 30  1  0  0  0  0
 55 31  1  0  0  0  0
 56 33  1  0  0  0  0
 59 34  1  0  0  0  0
M  CHG  1   2  -1
M  END
