1,2
 OpenBabel05122313063D

 47 49  0  0  1  0  0  0  0  0999 V2000
   -0.8354   -1.5289   -0.1792 P   0  0  0  0  0  0  0  0  0  0  0  0
   -1.7933    1.0703    0.3632 O   0  0  0  0  0  1  0  0  0  0  0  0
   -3.9713    1.4029   -0.1104 N   0  0  0  0  0  0  0  0  0  0  0  0
   -4.7753    1.0957   -0.6613 H   0  0  0  0  0  0  0  0  0  0  0  0
   -3.3452   -0.3799   -3.9587 C   0  0  0  0  0  0  0  0  0  0  0  0
   -3.8977   -0.0706   -4.8580 H   0  0  0  0  0  0  0  0  0  0  0  0
   -3.4014    0.4046   -2.7978 C   0  0  0  0  0  0  0  0  0  0  0  0
   -3.9853    1.3378   -2.7955 H   0  0  0  0  0  0  0  0  0  0  0  0
   -4.2231    2.1400    1.1343 C   0  0  0  0  0  0  0  0  0  0  0  0
   -3.2791    2.6818    1.3482 H   0  0  0  0  0  0  0  0  0  0  0  0
   -4.4958    1.1675    2.2891 C   0  0  0  0  0  0  0  0  0  0  0  0
   -3.6527    0.4606    2.4145 H   0  0  0  0  0  0  0  0  0  0  0  0
   -5.4193    0.5798    2.1052 H   0  0  0  0  0  0  0  0  0  0  0  0
   -4.6253    1.7234    3.2389 H   0  0  0  0  0  0  0  0  0  0  0  0
   -2.6765    0.0397   -1.6482 C   0  0  0  0  0  0  0  0  0  0  0  0
    0.1132   -3.0216   -0.6289 C   0  0  0  0  0  0  0  0  0  0  0  0
   -3.3441   -2.5445    0.7412 C   0  0  0  0  0  0  0  0  0  0  0  0
   -3.6260   -2.6576   -0.3171 H   0  0  0  0  0  0  0  0  0  0  0  0
   -1.7057   -1.9130    2.4363 C   0  0  0  0  0  0  0  0  0  0  0  0
   -0.7082   -1.5233    2.6929 H   0  0  0  0  0  0  0  0  0  0  0  0
    1.1241   -2.8961   -1.6086 C   0  0  0  0  0  0  0  0  0  0  0  0
    1.2735   -1.9383   -2.1282 H   0  0  0  0  0  0  0  0  0  0  0  0
   -2.0637   -2.0626    1.0794 C   0  0  0  0  0  0  0  0  0  0  0  0
    1.9422   -3.9916   -1.9150 C   0  0  0  0  0  0  0  0  0  0  0  0
    2.7340   -3.8814   -2.6712 H   0  0  0  0  0  0  0  0  0  0  0  0
   -1.8710   -1.1326   -1.6616 C   0  0  0  0  0  0  0  0  0  0  0  0
   -1.8468   -1.9239   -2.8240 C   0  0  0  0  0  0  0  0  0  0  0  0
   -1.2430   -2.8429   -2.8381 H   0  0  0  0  0  0  0  0  0  0  0  0
   -0.0639   -4.2496    0.0383 C   0  0  0  0  0  0  0  0  0  0  0  0
   -0.8441   -4.3494    0.8076 H   0  0  0  0  0  0  0  0  0  0  0  0
    1.7661   -5.2134   -1.2443 C   0  0  0  0  0  0  0  0  0  0  0  0
    2.4186   -6.0683   -1.4778 H   0  0  0  0  0  0  0  0  0  0  0  0
   -2.6207   -2.2564    3.4426 C   0  0  0  0  0  0  0  0  0  0  0  0
   -2.3367   -2.1404    4.4994 H   0  0  0  0  0  0  0  0  0  0  0  0
   -2.5742   -1.5501   -3.9656 C   0  0  0  0  0  0  0  0  0  0  0  0
   -2.5297   -2.1785   -4.8678 H   0  0  0  0  0  0  0  0  0  0  0  0
   -2.7647    0.8726   -0.4086 C   0  0  2  0  0  3  0  0  0  0  0  0
    0.7623   -5.3409   -0.2718 C   0  0  0  0  0  0  0  0  0  0  0  0
    0.6226   -6.2963    0.2561 H   0  0  0  0  0  0  0  0  0  0  0  0
   -3.8976   -2.7338    3.1029 C   0  0  0  0  0  0  0  0  0  0  0  0
   -4.6170   -2.9930    3.8945 H   0  0  0  0  0  0  0  0  0  0  0  0
   -4.2579   -2.8775    1.7531 C   0  0  0  0  0  0  0  0  0  0  0  0
   -5.2573   -3.2534    1.4857 H   0  0  0  0  0  0  0  0  0  0  0  0
   -5.3541    3.1417    0.9083 C   0  0  0  0  0  0  0  0  0  0  0  0
   -5.1145    3.8417    0.0838 H   0  0  0  0  0  0  0  0  0  0  0  0
   -5.5281    3.7364    1.8258 H   0  0  0  0  0  0  0  0  0  0  0  0
   -6.3066    2.6234    0.6651 H   0  0  0  0  0  0  0  0  0  0  0  0
  1 23  1  0  0  0  0
  3  9  1  0  0  0  0
  4  3  1  0  0  0  0
  5  7  1  0  0  0  0
  6  5  1  0  0  0  0
  7  8  1  0  0  0  0
  7 15  2  0  0  0  0
  9 10  1  0  0  0  0
  9 11  1  0  0  0  0
 11 12  1  0  0  0  0
 11 14  1  0  0  0  0
 13 11  1  0  0  0  0
 15 37  1  0  0  0  0
 16  1  1  0  0  0  0
 16 29  1  0  0  0  0
 17 23  2  0  0  0  0
 17 42  1  0  0  0  0
 18 17  1  0  0  0  0
 19 20  1  0  0  0  0
 19 33  2  0  0  0  0
 21 16  2  0  0  0  0
 22 21  1  0  0  0  0
 23 19  1  0  0  0  0
 24 21  1  0  0  0  0
 24 31  2  0  0  0  0
 25 24  1  0  0  0  0
 26 15  1  0  0  0  0
 26  1  1  0  0  0  0
 27 26  2  0  0  0  0
 28 27  1  0  0  0  0
 29 30  1  0  0  0  0
 31 38  1  0  0  0  0
 32 31  1  0  0  0  0
 33 34  1  0  0  0  0
 35  5  2  0  0  0  0
 35 27  1  0  0  0  0
 36 35  1  0  0  0  0
 37  3  1  0  0  0  0
 37  2  1  1  0  0  0
 38 29  2  0  0  0  0
 38 39  1  0  0  0  0
 40 33  1  0  0  0  0
 40 41  1  0  0  0  0
 42 40  2  0  0  0  0
 43 42  1  0  0  0  0
 44  9  1  0  0  0  0
 44 46  1  0  0  0  0
 45 44  1  0  0  0  0
 47 44  1  0  0  0  0
M  END
