2,3
 OpenBabel05122313063D

 49 52  0  0  0  0  0  0  0  0999 V2000
   -2.1941   -0.8719   -0.2987 P   0  0  0  0  0  4  0  0  0  0  0  0
   -0.2356    1.2611   -0.3729 P   0  0  0  0  0  0  0  0  0  0  0  0
   -0.9859   -1.7820   -0.6412 O   0  0  0  0  0  1  0  0  0  0  0  0
   -1.8160    0.6992   -0.8535 N   0  0  0  0  0  0  0  0  0  0  0  0
   -3.7308   -1.2966   -1.1332 C   0  0  0  0  0  0  0  0  0  0  0  0
   -3.8074   -1.1388   -2.5352 C   0  0  0  0  0  0  0  0  0  0  0  0
   -4.9762   -1.5123   -3.2098 C   0  0  0  0  0  0  0  0  0  0  0  0
   -6.0622   -2.0457   -2.4939 C   0  0  0  0  0  0  0  0  0  0  0  0
   -5.9835   -2.2080   -1.1016 C   0  0  0  0  0  0  0  0  0  0  0  0
   -4.8188   -1.8353   -0.4153 C   0  0  0  0  0  0  0  0  0  0  0  0
   -2.4502   -0.7861    1.4941 C   0  0  0  0  0  0  0  0  0  0  0  0
   -1.7676   -1.6886    2.3327 C   0  0  0  0  0  0  0  0  0  0  0  0
   -1.8853   -1.5688    3.7254 C   0  0  0  0  0  0  0  0  0  0  0  0
   -2.6772   -0.5507    4.2790 C   0  0  0  0  0  0  0  0  0  0  0  0
   -3.3588    0.3505    3.4429 C   0  0  0  0  0  0  0  0  0  0  0  0
   -3.2468    0.2363    2.0520 C   0  0  0  0  0  0  0  0  0  0  0  0
   -0.4806    2.1575    1.1992 C   0  0  0  0  0  0  0  0  0  0  0  0
   -1.3627    3.2577    1.2769 C   0  0  0  0  0  0  0  0  0  0  0  0
   -1.6371    3.8443    2.5195 C   0  0  0  0  0  0  0  0  0  0  0  0
   -1.0374    3.3361    3.6853 C   0  0  0  0  0  0  0  0  0  0  0  0
   -0.1605    2.2430    3.6095 C   0  0  0  0  0  0  0  0  0  0  0  0
    0.1192    1.6511    2.3690 C   0  0  0  0  0  0  0  0  0  0  0  0
    0.1358    2.4922   -1.6607 C   0  0  0  0  0  0  0  0  0  0  0  0
    0.6247    3.7780   -1.3504 C   0  0  0  0  0  0  0  0  0  0  0  0
    0.9706    4.6599   -2.3857 C   0  0  0  0  0  0  0  0  0  0  0  0
    0.8326    4.2651   -3.7249 C   0  0  0  0  0  0  0  0  0  0  0  0
    0.3505    2.9816   -4.0355 C   0  0  0  0  0  0  0  0  0  0  0  0
    0.0087    2.0924   -3.0094 C   0  0  0  0  0  0  0  0  0  0  0  0
   -2.5676    1.3727   -1.0447 H   0  0  0  0  0  0  0  0  0  0  0  0
   -2.9519   -0.7265   -3.0918 H   0  0  0  0  0  0  0  0  0  0  0  0
   -5.0416   -1.3899   -4.3010 H   0  0  0  0  0  0  0  0  0  0  0  0
   -6.9784   -2.3386   -3.0282 H   0  0  0  0  0  0  0  0  0  0  0  0
   -6.8346   -2.6276   -0.5453 H   0  0  0  0  0  0  0  0  0  0  0  0
   -4.7545   -1.9600    0.6761 H   0  0  0  0  0  0  0  0  0  0  0  0
   -1.1389   -2.4724    1.8874 H   0  0  0  0  0  0  0  0  0  0  0  0
   -1.3533   -2.2730    4.3821 H   0  0  0  0  0  0  0  0  0  0  0  0
   -2.7638   -0.4557    5.3718 H   0  0  0  0  0  0  0  0  0  0  0  0
   -3.9725    1.1527    3.8783 H   0  0  0  0  0  0  0  0  0  0  0  0
   -3.7679    0.9559    1.4017 H   0  0  0  0  0  0  0  0  0  0  0  0
   -1.8351    3.6610    0.3669 H   0  0  0  0  0  0  0  0  0  0  0  0
   -2.3207    4.7044    2.5800 H   0  0  0  0  0  0  0  0  0  0  0  0
   -1.2553    3.7997    4.6592 H   0  0  0  0  0  0  0  0  0  0  0  0
    0.3085    1.8457    4.5217 H   0  0  0  0  0  0  0  0  0  0  0  0
    0.8003    0.7886    2.2963 H   0  0  0  0  0  0  0  0  0  0  0  0
    0.7317    4.0948   -0.3024 H   0  0  0  0  0  0  0  0  0  0  0  0
    1.3494    5.6633   -2.1414 H   0  0  0  0  0  0  0  0  0  0  0  0
    1.1051    4.9597   -4.5334 H   0  0  0  0  0  0  0  0  0  0  0  0
    0.2473    2.6702   -5.0856 H   0  0  0  0  0  0  0  0  0  0  0  0
   -0.3559    1.0816   -3.2487 H   0  0  0  0  0  0  0  0  0  0  0  0
  1 11  1  0  0  0  0
  2 17  1  0  0  0  0
  3  1  1  0  0  0  0
  4  2  1  0  0  0  0
  4  1  1  0  0  0  0
  5 10  1  0  0  0  0
  5  1  1  0  0  0  0
  6  5  2  0  0  0  0
  7  6  1  0  0  0  0
  7  8  2  0  0  0  0
  8  9  1  0  0  0  0
  9 33  1  0  0  0  0
  9 10  2  0  0  0  0
 10 34  1  0  0  0  0
 11 16  2  0  0  0  0
 11 12  1  0  0  0  0
 12 13  2  0  0  0  0
 13 14  1  0  0  0  0
 13 36  1  0  0  0  0
 14 37  1  0  0  0  0
 15 38  1  0  0  0  0
 15 14  2  0  0  0  0
 16 15  1  0  0  0  0
 17 18  2  0  0  0  0
 17 22  1  0  0  0  0
 18 19  1  0  0  0  0
 19 41  1  0  0  0  0
 19 20  2  0  0  0  0
 20 42  1  0  0  0  0
 21 20  1  0  0  0  0
 21 43  1  0  0  0  0
 22 21  2  0  0  0  0
 23 24  1  0  0  0  0
 23  2  1  0  0  0  0
 24 45  1  0  0  0  0
 25 46  1  0  0  0  0
 25 24  2  0  0  0  0
 26 25  1  0  0  0  0
 27 26  2  0  0  0  0
 27 28  1  0  0  0  0
 28 23  2  0  0  0  0
 29  4  1  0  0  0  0
 30  6  1  0  0  0  0
 31  7  1  0  0  0  0
 32  8  1  0  0  0  0
 35 12  1  0  0  0  0
 39 16  1  0  0  0  0
 40 18  1  0  0  0  0
 44 22  1  0  0  0  0
 47 26  1  0  0  0  0
 48 27  1  0  0  0  0
 49 28  1  0  0  0  0
M  END
