1,2
q = -1.0, confidence = 0.0

 35 36  0  0  1  0  0  0  0  0999 V2000
    1.7586   -0.0346   -0.2312 P   0  0  0  0  0  0  0  0  0  0  0  0
    1.5572   -1.9704   -2.3171 O   0  5  0  0  0  0  0  0  0  0  0  0
    3.7010   -2.6381   -2.2370 O   0  0  0  0  0  0  0  0  0  0  0  0
    3.1843   -0.4500   -1.3300 C   0  0  2  0  0  0  0  0  0  0  0  0
    3.0641    0.2972   -2.1482 H   0  0  0  0  0  0  0  0  0  0  0  0
    2.5228   -2.2727    1.2847 C   0  0  0  0  0  0  0  0  0  0  0  0
    3.0194   -2.6385    0.3734 H   0  0  0  0  0  0  0  0  0  0  0  0
    2.5705    2.2097    1.3263 C   0  0  0  0  0  0  0  0  0  0  0  0
    2.9888    1.4987    2.0539 H   0  0  0  0  0  0  0  0  0  0  0  0
    1.9105   -0.9996    1.3135 C   0  0  0  0  0  0  0  0  0  0  0  0
    2.8157   -1.8184   -2.0101 C   0  0  0  0  0  0  0  0  0  0  0  0
    2.2148    4.5017    0.5881 C   0  0  0  0  0  0  0  0  0  0  0  0
    2.3386    5.5833    0.7488 H   0  0  0  0  0  0  0  0  0  0  0  0
    2.7226    3.5899    1.5274 C   0  0  0  0  0  0  0  0  0  0  0  0
    3.2515    3.9546    2.4209 H   0  0  0  0  0  0  0  0  0  0  0  0
    1.8947    1.7374    0.1823 C   0  0  0  0  0  0  0  0  0  0  0  0
    1.2385   -1.3896    3.6274 C   0  0  0  0  0  0  0  0  0  0  0  0
    0.7238   -1.0446    4.5366 H   0  0  0  0  0  0  0  0  0  0  0  0
    1.8522   -2.6515    3.5967 C   0  0  0  0  0  0  0  0  0  0  0  0
    1.8289   -3.2982    4.4867 H   0  0  0  0  0  0  0  0  0  0  0  0
    4.5978   -0.3668   -0.7475 C   0  0  0  0  0  0  0  0  0  0  0  0
    4.5908   -0.6622    0.3237 H   0  0  0  0  0  0  0  0  0  0  0  0
    5.1686   -1.1633   -1.2734 H   0  0  0  0  0  0  0  0  0  0  0  0
    5.2755    0.9938   -0.9159 C   0  0  0  0  0  0  0  0  0  0  0  0
    5.3389    1.2762   -1.9875 H   0  0  0  0  0  0  0  0  0  0  0  0
    6.3095    0.9748   -0.5164 H   0  0  0  0  0  0  0  0  0  0  0  0
    4.7290    1.8032   -0.3909 H   0  0  0  0  0  0  0  0  0  0  0  0
    1.2628   -0.5693    2.4915 C   0  0  0  0  0  0  0  0  0  0  0  0
    0.7652    0.4108    2.5188 H   0  0  0  0  0  0  0  0  0  0  0  0
    1.3829    2.6570   -0.7568 C   0  0  0  0  0  0  0  0  0  0  0  0
    0.8466    2.2826   -1.6434 H   0  0  0  0  0  0  0  0  0  0  0  0
    2.4917   -3.0885    2.4253 C   0  0  0  0  0  0  0  0  0  0  0  0
    2.9727   -4.0775    2.3929 H   0  0  0  0  0  0  0  0  0  0  0  0
    1.5489    4.0330   -0.5562 C   0  0  0  0  0  0  0  0  0  0  0  0
    1.1438    4.7436   -1.2915 H   0  0  0  0  0  0  0  0  0  0  0  0
  1 16  1  0  0  0  0
  1 10  1  0  0  0  0
  2 11  1  0  0  0  0
  3 11  2  0  0  0  0
  4  5  1  6  0  0  0
  4 21  1  0  0  0  0
  4  1  1  0  0  0  0
  6 10  2  0  0  0  0
  6 32  1  0  0  0  0
  7  6  1  0  0  0  0
  8 14  1  0  0  0  0
  8  9  1  0  0  0  0
 10 28  1  0  0  0  0
 11  4  1  0  0  0  0
 12 13  1  0  0  0  0
 12 14  2  0  0  0  0
 14 15  1  0  0  0  0
 16  8  2  0  0  0  0
 17 18  1  0  0  0  0
 19 17  1  0  0  0  0
 19 20  1  0  0  0  0
 21 22  1  0  0  0  0
 23 21  1  0  0  0  0
 24 21  1  0  0  0  0
 24 26  1  0  0  0  0
 24 27  1  0  0  0  0
 25 24  1  0  0  0  0
 28 29  1  0  0  0  0
 28 17  2  0  0  0  0
 30 34  2  0  0  0  0
 30 16  1  0  0  0  0
 31 30  1  0  0  0  0
 32 19  2  0  0  0  0
 33 32  1  0  0  0  0
 34 12  1  0  0  0  0
 35 34  1  0  0  0  0
M  CHG  1   2  -1
M  END
