1,2
q = -1.0, confidence = 0.0

 31 32  0  0  0  0  0  0  0  0999 V2000
    1.8822   -0.9493   -0.0759 P   0  0  0  0  0  0  0  0  0  0  0  0
   -0.3832   -2.2876   -1.1554 O   0  5  0  0  0  0  0  0  0  0  0  0
    0.5894   -3.1158   -0.8783 C   0  0  0  0  0  0  0  0  0  0  0  0
    0.2968   -4.5701   -1.1733 C   0  0  0  0  0  0  0  0  0  0  0  0
    1.8043   -2.7076   -0.3415 C   0  0  0  0  0  0  0  0  0  0  0  0
    3.3308   -0.2538   -0.9732 C   0  0  0  0  0  0  0  0  0  0  0  0
    4.1741   -1.1090   -1.7115 C   0  0  0  0  0  0  0  0  0  0  0  0
    5.2547   -0.5883   -2.4390 C   0  0  0  0  0  0  0  0  0  0  0  0
    5.5034    0.7934   -2.4434 C   0  0  0  0  0  0  0  0  0  0  0  0
    4.6586    1.6532   -1.7234 C   0  0  0  0  0  0  0  0  0  0  0  0
    3.5749    1.1381   -0.9967 C   0  0  0  0  0  0  0  0  0  0  0  0
    2.2549   -0.6906    1.7152 C   0  0  0  0  0  0  0  0  0  0  0  0
    1.5996   -1.5407    2.6330 C   0  0  0  0  0  0  0  0  0  0  0  0
    1.7476   -1.3513    4.0137 C   0  0  0  0  0  0  0  0  0  0  0  0
    2.5562   -0.3101    4.5008 C   0  0  0  0  0  0  0  0  0  0  0  0
    3.2196    0.5316    3.5952 C   0  0  0  0  0  0  0  0  0  0  0  0
    3.0705    0.3456    2.2114 C   0  0  0  0  0  0  0  0  0  0  0  0
    3.9639   -2.1894   -1.7221 H   0  0  0  0  0  0  0  0  0  0  0  0
    5.9058   -1.2685   -3.0098 H   0  0  0  0  0  0  0  0  0  0  0  0
    6.3504    1.2014   -3.0161 H   0  0  0  0  0  0  0  0  0  0  0  0
    4.8334    2.7400   -1.7344 H   0  0  0  0  0  0  0  0  0  0  0  0
    2.9030    1.8279   -0.4669 H   0  0  0  0  0  0  0  0  0  0  0  0
    0.9805   -2.3645    2.2448 H   0  0  0  0  0  0  0  0  0  0  0  0
    1.2332   -2.0261    4.7157 H   0  0  0  0  0  0  0  0  0  0  0  0
    2.6746   -0.1609    5.5850 H   0  0  0  0  0  0  0  0  0  0  0  0
    3.8637    1.3437    3.9664 H   0  0  0  0  0  0  0  0  0  0  0  0
    3.6014    1.0103    1.5161 H   0  0  0  0  0  0  0  0  0  0  0  0
    2.6088   -3.4099   -0.0805 H   0  0  0  0  0  0  0  0  0  0  0  0
    1.1642   -5.2283   -0.9801 H   0  0  0  0  0  0  0  0  0  0  0  0
   -0.5592   -4.9121   -0.5540 H   0  0  0  0  0  0  0  0  0  0  0  0
   -0.0146   -4.6763   -2.2326 H   0  0  0  0  0  0  0  0  0  0  0  0
  1 12  1  0  0  0  0
  2  3  1  0  0  0  0
  3  5  2  0  0  0  0
  4 29  1  0  0  0  0
  4  3  1  0  0  0  0
  4 30  1  0  0  0  0
  5 28  1  0  0  0  0
  5  1  1  0  0  0  0
  6  1  1  0  0  0  0
  7  6  2  0  0  0  0
  8  7  1  0  0  0  0
  9  8  2  0  0  0  0
  9 10  1  0  0  0  0
 10 11  2  0  0  0  0
 11  6  1  0  0  0  0
 11 22  1  0  0  0  0
 12 17  2  0  0  0  0
 12 13  1  0  0  0  0
 13 14  2  0  0  0  0
 14 15  1  0  0  0  0
 14 24  1  0  0  0  0
 15 25  1  0  0  0  0
 16 26  1  0  0  0  0
 16 15  2  0  0  0  0
 17 16  1  0  0  0  0
 18  7  1  0  0  0  0
 19  8  1  0  0  0  0
 20  9  1  0  0  0  0
 21 10  1  0  0  0  0
 23 13  1  0  0  0  0
 27 17  1  0  0  0  0
 31  4  1  0  0  0  0
M  CHG  1   2  -1
M  END
