1,2
q = 0.0, confidence = 0.998

 48 51  0  0  1  0  0  0  0  0999 V2000
   -0.9802   -1.6663   -0.0178 P   0  0  0  0  0  0  0  0  0  0  0  0
    1.5955   -0.6858    0.5723 O   0  0  0  0  0  1  0  0  0  0  0  0
    3.2341   -2.2264    0.8990 N   0  0  0  0  0  0  0  0  0  0  0  0
    3.4240   -3.1658    1.2521 H   0  0  0  0  0  0  0  0  0  0  0  0
   -1.2347   -3.6844    1.9787 C   0  0  0  0  0  0  0  0  0  0  0  0
   -2.2904   -3.7366    1.6748 H   0  0  0  0  0  0  0  0  0  0  0  0
   -2.7677   -2.0150   -0.1769 C   0  0  0  0  0  0  0  0  0  0  0  0
   -0.2014   -2.3587   -1.5322 C   0  0  0  0  0  0  0  0  0  0  0  0
    1.9429   -1.8056    1.0149 C   0  0  1  0  0  3  0  0  0  0  0  0
   -3.6370   -1.5366    0.8287 C   0  0  0  0  0  0  0  0  0  0  0  0
   -3.2308   -1.0101    1.7044 H   0  0  0  0  0  0  0  0  0  0  0  0
    0.9992   -2.7477    1.6957 C   0  0  0  0  0  0  0  0  0  0  0  0
    4.3557   -1.5408    0.3743 C   0  0  0  0  0  0  0  0  0  0  0  0
    0.5752   -4.4378    3.4152 C   0  0  0  0  0  0  0  0  0  0  0  0
    0.9435   -5.0579    4.2456 H   0  0  0  0  0  0  0  0  0  0  0  0
    4.2471   -0.3711   -0.4060 C   0  0  0  0  0  0  0  0  0  0  0  0
    3.2655    0.0363   -0.6586 H   0  0  0  0  0  0  0  0  0  0  0  0
    1.4499   -3.5669    2.7518 C   0  0  0  0  0  0  0  0  0  0  0  0
    2.4945   -3.4945    3.0931 H   0  0  0  0  0  0  0  0  0  0  0  0
   -0.3719   -2.7958    1.3116 C   0  0  0  0  0  0  0  0  0  0  0  0
   -3.3016   -2.6638   -1.3081 C   0  0  0  0  0  0  0  0  0  0  0  0
   -2.6310   -3.0257   -2.1014 H   0  0  0  0  0  0  0  0  0  0  0  0
    0.1135   -3.7276   -1.6558 C   0  0  0  0  0  0  0  0  0  0  0  0
   -0.1278   -4.4238   -0.8376 H   0  0  0  0  0  0  0  0  0  0  0  0
    5.4111    0.2550   -0.8722 C   0  0  0  0  0  0  0  0  0  0  0  0
    5.3036    1.1745   -1.4677 H   0  0  0  0  0  0  0  0  0  0  0  0
   -0.7689   -4.4997    3.0221 C   0  0  0  0  0  0  0  0  0  0  0  0
   -1.4649   -5.1827    3.5318 H   0  0  0  0  0  0  0  0  0  0  0  0
    0.1162   -1.4655   -2.5771 C   0  0  0  0  0  0  0  0  0  0  0  0
   -0.1158   -0.3946   -2.4766 H   0  0  0  0  0  0  0  0  0  0  0  0
   -5.0210   -1.7194    0.7052 C   0  0  0  0  0  0  0  0  0  0  0  0
   -5.6901   -1.3323    1.4883 H   0  0  0  0  0  0  0  0  0  0  0  0
    5.6298   -2.0811    0.6545 C   0  0  0  0  0  0  0  0  0  0  0  0
    5.7152   -2.9969    1.2621 H   0  0  0  0  0  0  0  0  0  0  0  0
    6.7824   -1.4498    0.1729 C   0  0  0  0  0  0  0  0  0  0  0  0
    7.7694   -1.8795    0.4006 H   0  0  0  0  0  0  0  0  0  0  0  0
   -4.6890   -2.8392   -1.4266 C   0  0  0  0  0  0  0  0  0  0  0  0
   -5.0992   -3.3430   -2.3149 H   0  0  0  0  0  0  0  0  0  0  0  0
    0.7360   -1.9475   -3.7396 C   0  0  0  0  0  0  0  0  0  0  0  0
    0.9864   -1.2466   -4.5499 H   0  0  0  0  0  0  0  0  0  0  0  0
    6.6797   -0.2723   -0.5864 C   0  0  0  0  0  0  0  0  0  0  0  0
    7.5867    0.2288   -0.9555 H   0  0  0  0  0  0  0  0  0  0  0  0
    1.0479   -3.3109   -3.8622 C   0  0  0  0  0  0  0  0  0  0  0  0
    1.5418   -3.6829   -4.7727 H   0  0  0  0  0  0  0  0  0  0  0  0
    0.7355   -4.2005   -2.8208 C   0  0  0  0  0  0  0  0  0  0  0  0
    0.9801   -5.2696   -2.9152 H   0  0  0  0  0  0  0  0  0  0  0  0
   -5.5495   -2.3681   -0.4231 C   0  0  0  0  0  0  0  0  0  0  0  0
   -6.6375   -2.4992   -0.5238 H   0  0  0  0  0  0  0  0  0  0  0  0
  1 20  1  0  0  0  0
  3  9  1  0  0  0  0
  3  4  1  0  0  0  0
  5 27  1  0  0  0  0
  6  5  1  0  0  0  0
  7  1  1  0  0  0  0
  7 10  1  0  0  0  0
  8  1  1  0  0  0  0
  9  2  1  1  0  0  0
  9 12  1  0  0  0  0
 10 11  1  0  0  0  0
 12 18  2  0  0  0  0
 13 33  1  0  0  0  0
 13  3  1  0  0  0  0
 14 15  1  0  0  0  0
 16 13  2  0  0  0  0
 17 16  1  0  0  0  0
 18 19  1  0  0  0  0
 18 14  1  0  0  0  0
 20 12  1  0  0  0  0
 20  5  2  0  0  0  0
 21  7  2  0  0  0  0
 22 21  1  0  0  0  0
 23  8  1  0  0  0  0
 23 24  1  0  0  0  0
 25 41  2  0  0  0  0
 25 16  1  0  0  0  0
 26 25  1  0  0  0  0
 27 14  2  0  0  0  0
 27 28  1  0  0  0  0
 29 30  1  0  0  0  0
 29  8  2  0  0  0  0
 31 10  2  0  0  0  0
 31 32  1  0  0  0  0
 33 34  1  0  0  0  0
 35 36  1  0  0  0  0
 35 33  2  0  0  0  0
 37 21  1  0  0  0  0
 37 47  2  0  0  0  0
 38 37  1  0  0  0  0
 39 29  1  0  0  0  0
 40 39  1  0  0  0  0
 41 35  1  0  0  0  0
 42 41  1  0  0  0  0
 43 39  2  0  0  0  0
 43 45  1  0  0  0  0
 44 43  1  0  0  0  0
 45 23  2  0  0  0  0
 46 45  1  0  0  0  0
 47 31  1  0  0  0  0
 48 47  1  0  0  0  0
M  END
