1,13
q = 0.0, confidence = 0.98

 59 59  0  0  0  0  0  0  0  0999 V2000
    0.4398    1.6539   -0.0754 P   0  0  0  0  0  0  0  0  0  0  0  0
   -1.3465    1.8338   -0.6468 C   0  0  0  0  0  0  0  0  0  0  0  0
   -1.6457    3.0724   -1.2672 C   0  0  0  0  0  0  0  0  0  0  0  0
   -0.8638    3.8334   -1.3753 H   0  0  0  0  0  0  0  0  0  0  0  0
   -2.9170    3.3849   -1.7646 C   0  0  0  0  0  0  0  0  0  0  0  0
   -3.0906    4.3638   -2.2353 H   0  0  0  0  0  0  0  0  0  0  0  0
   -3.9512    2.4491   -1.6602 C   0  0  0  0  0  0  0  0  0  0  0  0
   -4.9563    2.6714   -2.0472 H   0  0  0  0  0  0  0  0  0  0  0  0
   -3.6882    1.2196   -1.0480 C   0  0  0  0  0  0  0  0  0  0  0  0
   -4.5068    0.4930   -0.9581 H   0  0  0  0  0  0  0  0  0  0  0  0
   -2.4122    0.8935   -0.5331 C   0  0  0  0  0  0  0  0  0  0  0  0
   -2.2873   -0.7661    0.2456 P   0  0  0  0  0  4  0  0  0  0  0  0
   -0.9734   -0.8939    1.0624 O   0  0  0  0  0  1  0  0  0  0  0  0
    1.3658    2.3174   -1.5743 C   0  0  0  0  0  0  0  0  0  0  0  0
    0.8055    3.2261   -1.8729 H   0  0  0  0  0  0  0  0  0  0  0  0
    1.2709    1.2960   -2.7133 C   0  0  0  0  0  0  0  0  0  0  0  0
    1.7691    1.6967   -3.6191 H   0  0  0  0  0  0  0  0  0  0  0  0
    0.2211    1.0643   -2.9810 H   0  0  0  0  0  0  0  0  0  0  0  0
    1.7756    0.3486   -2.4330 H   0  0  0  0  0  0  0  0  0  0  0  0
    2.8132    2.7361   -1.3017 C   0  0  0  0  0  0  0  0  0  0  0  0
    3.4678    1.8638   -1.1271 H   0  0  0  0  0  0  0  0  0  0  0  0
    2.9137    3.4181   -0.4352 H   0  0  0  0  0  0  0  0  0  0  0  0
    3.1974    3.2749   -2.1920 H   0  0  0  0  0  0  0  0  0  0  0  0
    0.6016    2.8991    1.3188 C   0  0  0  0  0  0  0  0  0  0  0  0
    1.6818    2.8079    1.5637 H   0  0  0  0  0  0  0  0  0  0  0  0
    0.3112    4.3634    0.9795 C   0  0  0  0  0  0  0  0  0  0  0  0
   -0.7696    4.5383    0.8122 H   0  0  0  0  0  0  0  0  0  0  0  0
    0.8706    4.7235    0.0934 H   0  0  0  0  0  0  0  0  0  0  0  0
    0.6132    4.9991    1.8369 H   0  0  0  0  0  0  0  0  0  0  0  0
   -0.2135    2.4083    2.5210 C   0  0  0  0  0  0  0  0  0  0  0  0
   -0.0089    3.0472    3.4035 H   0  0  0  0  0  0  0  0  0  0  0  0
    0.0299    1.3596    2.7845 H   0  0  0  0  0  0  0  0  0  0  0  0
   -1.3012    2.4678    2.3109 H   0  0  0  0  0  0  0  0  0  0  0  0
   -2.2965   -2.0227   -1.1699 C   0  0  0  0  0  0  0  0  0  0  0  0
   -1.1016   -1.6493   -2.0689 C   0  0  0  0  0  0  0  0  0  0  0  0
   -0.9904   -2.4258   -2.8541 H   0  0  0  0  0  0  0  0  0  0  0  0
   -0.1512   -1.5924   -1.5003 H   0  0  0  0  0  0  0  0  0  0  0  0
   -1.2589   -0.6788   -2.5792 H   0  0  0  0  0  0  0  0  0  0  0  0
   -2.0609   -3.4088   -0.5399 C   0  0  0  0  0  0  0  0  0  0  0  0
   -1.8977   -4.1469   -1.3528 H   0  0  0  0  0  0  0  0  0  0  0  0
   -2.9348   -3.7567    0.0446 H   0  0  0  0  0  0  0  0  0  0  0  0
   -1.1681   -3.4067    0.1158 H   0  0  0  0  0  0  0  0  0  0  0  0
   -3.5755   -2.0089   -2.0219 C   0  0  0  0  0  0  0  0  0  0  0  0
   -3.7327   -1.0339   -2.5225 H   0  0  0  0  0  0  0  0  0  0  0  0
   -4.4840   -2.2666   -1.4489 H   0  0  0  0  0  0  0  0  0  0  0  0
   -3.4669   -2.7687   -2.8236 H   0  0  0  0  0  0  0  0  0  0  0  0
   -3.6581   -0.9572    1.5460 C   0  0  0  0  0  0  0  0  0  0  0  0
   -3.7569    0.4008    2.2701 C   0  0  0  0  0  0  0  0  0  0  0  0
   -4.1951    1.1928    1.6329 H   0  0  0  0  0  0  0  0  0  0  0  0
   -2.7643    0.7416    2.6236 H   0  0  0  0  0  0  0  0  0  0  0  0
   -4.4082    0.2818    3.1600 H   0  0  0  0  0  0  0  0  0  0  0  0
   -5.0335   -1.3851    1.0112 C   0  0  0  0  0  0  0  0  0  0  0  0
   -5.0137   -2.3964    0.5623 H   0  0  0  0  0  0  0  0  0  0  0  0
   -5.4661   -0.6793    0.2764 H   0  0  0  0  0  0  0  0  0  0  0  0
   -5.7388   -1.4245    1.8669 H   0  0  0  0  0  0  0  0  0  0  0  0
   -3.1513   -2.0202    2.5461 C   0  0  0  0  0  0  0  0  0  0  0  0
   -3.8871   -2.0915    3.3731 H   0  0  0  0  0  0  0  0  0  0  0  0
   -2.1679   -1.7474    2.9693 H   0  0  0  0  0  0  0  0  0  0  0  0
   -3.0639   -3.0236    2.0887 H   0  0  0  0  0  0  0  0  0  0  0  0
  1 24  1  0  0  0  0
  2 11  1  0  0  0  0
  2  1  1  0  0  0  0
  3  2  2  0  0  0  0
  4  3  1  0  0  0  0
  5  7  2  0  0  0  0
  5  3  1  0  0  0  0
  6  5  1  0  0  0  0
  7  9  1  0  0  0  0
  8  7  1  0  0  0  0
  9 10  1  0  0  0  0
  9 11  2  0  0  0  0
 11 12  1  0  0  0  0
 12 13  1  0  0  0  0
 12 47  1  0  0  0  0
 14 20  1  0  0  0  0
 14  1  1  0  0  0  0
 15 14  1  0  0  0  0
 16 19  1  0  0  0  0
 16 14  1  0  0  0  0
 17 16  1  0  0  0  0
 18 16  1  0  0  0  0
 20 21  1  0  0  0  0
 20 22  1  0  0  0  0
 23 20  1  0  0  0  0
 24 25  1  0  0  0  0
 24 30  1  0  0  0  0
 26 24  1  0  0  0  0
 26 29  1  0  0  0  0
 27 26  1  0  0  0  0
 28 26  1  0  0  0  0
 30 32  1  0  0  0  0
 30 31  1  0  0  0  0
 33 30  1  0  0  0  0
 34 39  1  0  0  0  0
 34 12  1  0  0  0  0
 35 37  1  0  0  0  0
 35 34  1  0  0  0  0
 36 35  1  0  0  0  0
 38 35  1  0  0  0  0
 39 41  1  0  0  0  0
 39 42  1  0  0  0  0
 40 39  1  0  0  0  0
 43 45  1  0  0  0  0
 43 34  1  0  0  0  0
 44 43  1  0  0  0  0
 46 43  1  0  0  0  0
 47 48  1  0  0  0  0
 47 56  1  0  0  0  0
 48 50  1  0  0  0  0
 48 51  1  0  0  0  0
 49 48  1  0  0  0  0
 52 47  1  0  0  0  0
 52 55  1  0  0  0  0
 53 52  1  0  0  0  0
 54 52  1  0  0  0  0
 56 58  1  0  0  0  0
 56 57  1  0  0  0  0
 59 56  1  0  0  0  0
M  END
