1,2
q = 0.0, confidence = 0.994

 48 51  0  0  1  0  0  0  0  0999 V2000
   -0.3474    0.4014   -0.0314 P   0  0  0  0  0  0  0  0  0  0  0  0
    0.4431   -2.3957   -0.5145 O   0  0  0  0  0  1  0  0  0  0  0  0
    1.2793   -0.2118   -0.4103 N   0  0  0  0  0  0  0  0  0  0  0  0
    1.3883   -1.5804   -0.5182 C   0  0  2  0  0  3  0  0  0  0  0  0
    2.8624   -1.8920   -0.6442 C   0  0  1  0  0  0  0  0  0  0  0  0
    3.2640   -1.3742   -2.0581 C   0  0  0  0  0  0  0  0  0  0  0  0
    3.1768    0.1665   -1.8983 C   0  0  0  0  0  0  0  0  0  0  0  0
    2.6819    0.3519   -0.4362 C   0  0  2  0  0  0  0  0  0  0  0  0
    3.4481   -0.8064    0.3178 C   0  0  0  0  0  0  0  0  0  0  0  0
    3.0095   -0.9879    1.7767 C   0  0  0  0  0  0  0  0  0  0  0  0
    4.9753   -0.6872    0.2793 C   0  0  0  0  0  0  0  0  0  0  0  0
    2.8040    1.7564    0.1103 C   0  0  0  0  0  0  0  0  0  0  0  0
   -0.7085    1.7273   -1.2217 C   0  0  0  0  0  0  0  0  0  0  0  0
   -1.7100    2.6715   -0.9026 C   0  0  0  0  0  0  0  0  0  0  0  0
   -2.1052    3.6163   -1.8599 C   0  0  0  0  0  0  0  0  0  0  0  0
   -1.5218    3.6206   -3.1368 C   0  0  0  0  0  0  0  0  0  0  0  0
   -0.5522    2.6599   -3.4671 C   0  0  0  0  0  0  0  0  0  0  0  0
   -0.1556    1.7086   -2.5177 C   0  0  0  0  0  0  0  0  0  0  0  0
   -0.2478    1.1845    1.6206 C   0  0  0  0  0  0  0  0  0  0  0  0
   -0.5050    0.3494    2.7286 C   0  0  0  0  0  0  0  0  0  0  0  0
   -0.4200    0.8645    4.0294 C   0  0  0  0  0  0  0  0  0  0  0  0
   -0.0963    2.2158    4.2313 C   0  0  0  0  0  0  0  0  0  0  0  0
    0.1377    3.0555    3.1296 C   0  0  0  0  0  0  0  0  0  0  0  0
    0.0626    2.5446    1.8260 C   0  0  0  0  0  0  0  0  0  0  0  0
    3.0954   -2.9510   -0.4361 H   0  0  0  0  0  0  0  0  0  0  0  0
    4.2869   -1.7132   -2.3113 H   0  0  0  0  0  0  0  0  0  0  0  0
    2.5872   -1.7725   -2.8381 H   0  0  0  0  0  0  0  0  0  0  0  0
    4.1612    0.6577   -2.0262 H   0  0  0  0  0  0  0  0  0  0  0  0
    2.4856    0.6470   -2.6136 H   0  0  0  0  0  0  0  0  0  0  0  0
    3.3544   -0.1375    2.3986 H   0  0  0  0  0  0  0  0  0  0  0  0
    1.9124   -1.0654    1.8993 H   0  0  0  0  0  0  0  0  0  0  0  0
    3.4593   -1.9096    2.1966 H   0  0  0  0  0  0  0  0  0  0  0  0
    5.4330   -1.5916    0.7281 H   0  0  0  0  0  0  0  0  0  0  0  0
    5.3934   -0.5726   -0.7375 H   0  0  0  0  0  0  0  0  0  0  0  0
    5.3102    0.1807    0.8828 H   0  0  0  0  0  0  0  0  0  0  0  0
    3.8547    2.0933    0.0173 H   0  0  0  0  0  0  0  0  0  0  0  0
    2.1742    2.4636   -0.4651 H   0  0  0  0  0  0  0  0  0  0  0  0
    2.5119    1.8147    1.1747 H   0  0  0  0  0  0  0  0  0  0  0  0
   -2.1965    2.6447    0.0828 H   0  0  0  0  0  0  0  0  0  0  0  0
   -2.8859    4.3491   -1.6067 H   0  0  0  0  0  0  0  0  0  0  0  0
   -1.8363    4.3649   -3.8838 H   0  0  0  0  0  0  0  0  0  0  0  0
   -0.1106    2.6420   -4.4748 H   0  0  0  0  0  0  0  0  0  0  0  0
    0.5717    0.9305   -2.7886 H   0  0  0  0  0  0  0  0  0  0  0  0
   -0.7974   -0.6992    2.5568 H   0  0  0  0  0  0  0  0  0  0  0  0
   -0.6251    0.2090    4.8888 H   0  0  0  0  0  0  0  0  0  0  0  0
   -0.0394    2.6215    5.2528 H   0  0  0  0  0  0  0  0  0  0  0  0
    0.3763    4.1184    3.2859 H   0  0  0  0  0  0  0  0  0  0  0  0
    0.2401    3.2083    0.9675 H   0  0  0  0  0  0  0  0  0  0  0  0
  1 19  1  0  0  0  0
  3  1  1  0  0  0  0
  4  2  1  6  0  0  0
  4  3  1  0  0  0  0
  5  4  1  0  0  0  0
  5 25  1  1  0  0  0
  5  9  1  0  0  0  0
  6  7  1  0  0  0  0
  6  5  1  0  0  0  0
  7  8  1  0  0  0  0
  8  3  1  0  0  0  0
  8 12  1  1  0  0  0
  8  9  1  0  0  0  0
  9 10  1  0  0  0  0
 10 31  1  0  0  0  0
 10 32  1  0  0  0  0
 10 30  1  0  0  0  0
 11  9  1  0  0  0  0
 11 33  1  0  0  0  0
 11 35  1  0  0  0  0
 12 38  1  0  0  0  0
 13 14  1  0  0  0  0
 13  1  1  0  0  0  0
 14 39  1  0  0  0  0
 15 40  1  0  0  0  0
 15 14  2  0  0  0  0
 16 15  1  0  0  0  0
 17 16  2  0  0  0  0
 17 18  1  0  0  0  0
 18 13  2  0  0  0  0
 19 24  2  0  0  0  0
 19 20  1  0  0  0  0
 20 21  2  0  0  0  0
 21 22  1  0  0  0  0
 21 45  1  0  0  0  0
 22 46  1  0  0  0  0
 23 47  1  0  0  0  0
 23 22  2  0  0  0  0
 24 23  1  0  0  0  0
 26  6  1  0  0  0  0
 27  6  1  0  0  0  0
 28  7  1  0  0  0  0
 29  7  1  0  0  0  0
 34 11  1  0  0  0  0
 36 12  1  0  0  0  0
 37 12  1  0  0  0  0
 41 16  1  0  0  0  0
 42 17  1  0  0  0  0
 43 18  1  0  0  0  0
 44 20  1  0  0  0  0
 48 24  1  0  0  0  0
M  END
