1,17,18,34,35
 OpenBabel05122313063D

 54 59  0  0  0  0  0  0  0  0999 V2000
    2.3120    0.7650   -1.4977 N   0  0  0  0  0  2  0  0  0  0  0  0
    3.1568   -0.0453   -2.1798 N   0  0  0  0  0  0  0  0  0  0  0  0
    4.2334    0.6935   -2.5888 C   0  0  0  0  0  3  0  0  0  0  0  0
    5.0408    0.2230   -3.1609 H   0  0  0  0  0  0  0  0  0  0  0  0
    4.0828    2.0014   -2.1291 C   0  0  0  0  0  0  0  0  0  0  0  0
    4.7805    2.8343   -2.2601 H   0  0  0  0  0  0  0  0  0  0  0  0
    2.8736    1.9887   -1.3774 C   0  0  0  0  0  0  0  0  0  0  0  0
    2.3146    2.7869   -0.2872 C   0  0  0  0  0  0  0  0  0  0  0  0
    2.6125    4.1489   -0.0833 C   0  0  0  0  0  0  0  0  0  0  0  0
    3.2205    4.6877   -0.8275 H   0  0  0  0  0  0  0  0  0  0  0  0
    2.1460    4.8072    1.0610 C   0  0  0  0  0  0  0  0  0  0  0  0
    2.3766    5.8712    1.2219 H   0  0  0  0  0  0  0  0  0  0  0  0
    1.3883    4.0915    2.0031 C   0  0  0  0  0  0  0  0  0  0  0  0
    1.0260    4.5971    2.9125 H   0  0  0  0  0  0  0  0  0  0  0  0
    1.0856    2.7331    1.8036 C   0  0  0  0  0  0  0  0  0  0  0  0
    0.4965    2.2019    2.5642 H   0  0  0  0  0  0  0  0  0  0  0  0
    1.5266    2.0399    0.6589 C   0  0  0  0  0  3  0  0  0  0  0  0
    2.5296   -1.0054    0.6257 N   0  0  0  0  0  2  0  0  0  0  0  0
    3.4006   -1.6283   -0.2069 N   0  0  0  0  0  0  0  0  0  0  0  0
    3.9777   -2.6508    0.4962 C   0  0  0  0  0  3  0  0  0  0  0  0
    4.7270   -3.2903    0.0174 H   0  0  0  0  0  0  0  0  0  0  0  0
    3.4393   -2.6872    1.7849 C   0  0  0  0  0  0  0  0  0  0  0  0
    3.6874   -3.3939    2.5825 H   0  0  0  0  0  0  0  0  0  0  0  0
    2.4738   -1.6440    1.8163 C   0  0  0  0  0  0  0  0  0  0  0  0
    1.3301   -1.2308    2.6267 C   0  0  0  0  0  0  0  0  0  0  0  0
    1.1121   -1.6590    3.9496 C   0  0  0  0  0  0  0  0  0  0  0  0
    1.8539   -2.3102    4.4389 H   0  0  0  0  0  0  0  0  0  0  0  0
   -0.0367   -1.2544    4.6433 C   0  0  0  0  0  0  0  0  0  0  0  0
   -0.2080   -1.5893    5.6773 H   0  0  0  0  0  0  0  0  0  0  0  0
   -0.9539   -0.3996    4.0092 C   0  0  0  0  0  0  0  0  0  0  0  0
   -1.8476   -0.0537    4.5534 H   0  0  0  0  0  0  0  0  0  0  0  0
   -0.7369    0.0308    2.6878 C   0  0  0  0  0  0  0  0  0  0  0  0
   -1.4652    0.7322    2.2497 H   0  0  0  0  0  0  0  0  0  0  0  0
    0.3865   -0.3804    1.9331 C   0  0  0  0  0  3  0  0  0  0  0  0
    0.6266   -1.7132   -1.1489 N   0  0  0  0  0  2  0  0  0  0  0  0
    1.6668   -2.0818   -1.9474 N   0  0  0  0  0  0  0  0  0  0  0  0
    1.2510   -2.9913   -2.8667 C   0  0  0  0  0  3  0  0  0  0  0  0
    1.9612   -3.4159   -3.5839 H   0  0  0  0  0  0  0  0  0  0  0  0
   -0.1083   -3.2232   -2.6704 C   0  0  0  0  0  0  0  0  0  0  0  0
   -0.7555   -3.9245   -3.2056 H   0  0  0  0  0  0  0  0  0  0  0  0
   -0.4601   -2.4112   -1.5621 C   0  0  0  0  0  0  0  0  0  0  0  0
   -1.7548   -2.3559   -0.8655 C   0  0  0  0  0  0  0  0  0  0  0  0
   -2.9622   -2.2796   -1.5954 C   0  0  0  0  0  0  0  0  0  0  0  0
   -2.9225   -2.2208   -2.6936 H   0  0  0  0  0  0  0  0  0  0  0  0
   -4.1955   -2.2445   -0.9304 C   0  0  0  0  0  0  0  0  0  0  0  0
   -5.1278   -2.1616   -1.5090 H   0  0  0  0  0  0  0  0  0  0  0  0
   -4.2432   -2.2859    0.4729 C   0  0  0  0  0  0  0  0  0  0  0  0
   -5.2127   -2.2465    0.9907 H   0  0  0  0  0  0  0  0  0  0  0  0
   -3.0487   -2.3651    1.2085 C   0  0  0  0  0  0  0  0  0  0  0  0
   -3.0691   -2.3969    2.3084 H   0  0  0  0  0  0  0  0  0  0  0  0
   -1.8118   -2.4090    0.5461 C   0  0  0  0  0  0  0  0  0  0  0  0
   -0.8793   -2.4846    1.1211 H   0  0  0  0  0  0  0  0  0  0  0  0
    3.1120   -1.5316   -1.7508 B   0  0  1  0  0  0  0  0  0  0  0  0
    3.9123   -2.2048   -2.3798 H   0  0  0  0  0  0  0  0  0  0  0  0
  1  7  1  0  0  0  0
  2 53  1  0  0  0  0
  2  1  1  0  0  0  0
  3  2  1  0  0  0  0
  3  5  1  0  0  0  0
  4  3  1  0  0  0  0
  5  7  2  0  0  0  0
  6  5  1  0  0  0  0
  7  8  1  0  0  0  0
  8  9  2  0  0  0  0
  8 17  1  0  0  0  0
  9 11  1  0  0  0  0
 10  9  1  0  0  0  0
 11 12  1  0  0  0  0
 11 13  2  0  0  0  0
 13 14  1  0  0  0  0
 15 13  1  0  0  0  0
 15 16  1  0  0  0  0
 17 15  2  0  0  0  0
 18 24  1  0  0  0  0
 19 20  1  0  0  0  0
 19 18  1  0  0  0  0
 20 22  1  0  0  0  0
 21 20  1  0  0  0  0
 22 24  2  0  0  0  0
 22 23  1  0  0  0  0
 24 25  1  0  0  0  0
 25 26  1  0  0  0  0
 26 27  1  0  0  0  0
 26 28  2  0  0  0  0
 28 29  1  0  0  0  0
 30 31  1  0  0  0  0
 30 28  1  0  0  0  0
 32 30  2  0  0  0  0
 33 32  1  0  0  0  0
 34 25  2  0  0  0  0
 34 32  1  0  0  0  0
 36 53  1  0  0  0  0
 36 35  1  0  0  0  0
 37 39  1  0  0  0  0
 37 36  1  0  0  0  0
 38 37  1  0  0  0  0
 39 41  2  0  0  0  0
 40 39  1  0  0  0  0
 41 35  1  0  0  0  0
 41 42  1  0  0  0  0
 42 51  1  0  0  0  0
 43 45  1  0  0  0  0
 43 42  2  0  0  0  0
 44 43  1  0  0  0  0
 45 47  2  0  0  0  0
 46 45  1  0  0  0  0
 47 48  1  0  0  0  0
 47 49  1  0  0  0  0
 49 50  1  0  0  0  0
 51 52  1  0  0  0  0
 51 49  2  0  0  0  0
 53 54  1  6  0  0  0
 53 19  1  0  0  0  0
M  END
