10,13
q = -1.0, confidence = 0.0

 24 28  0  0  1  0  0  0  0  0999 V2000
   -4.9162    0.0233   -0.0677 N   0  0  0  0  0  0  0  0  0  0  0  0
   -5.3442   -0.6955    0.5218 H   0  0  0  0  0  0  0  0  0  0  0  0
   -5.3109    0.9424    0.1489 H   0  0  0  0  0  0  0  0  0  0  0  0
   -1.2775   -1.4213   -0.1626 C   0  0  2  0  0  0  0  0  0  0  0  0
   -1.2352    1.2246   -0.6827 C   0  0  1  0  0  0  0  0  0  0  0  0
   -3.5042    0.0105   -0.0034 C   0  0  2  0  0  0  0  0  0  0  0  0
   -1.1397   -0.3062   -1.4400 B   0  0  2  0  0  0  0  0  0  0  0  0
   -2.6825   -1.0983   -1.0369 B   0  0  1  0  0  0  0  0  0  0  0  0
   -2.7082   -1.2965    0.7280 B   0  0  2  0  0  0  0  0  0  0  0  0
   -1.1544   -0.6744    1.3640 B   0  0  0  0  0  0  0  0  0  0  0  0
   -2.6527    0.6216   -1.3758 B   0  0  1  0  0  0  0  0  0  0  0  0
   -2.6390    0.2882    1.4971 B   0  0  1  0  0  0  0  0  0  0  0  0
   -1.1243    1.1093    1.0331 B   0  0  0  0  0  2  0  0  0  0  0  0
   -2.6580    1.4724    0.1870 B   0  0  1  0  0  0  0  0  0  0  0  0
   -0.9159   -2.4514   -0.2977 H   0  0  0  0  0  0  0  0  0  0  0  0
   -0.7023   -0.5490   -2.5343 H   0  0  0  0  0  0  0  0  0  0  0  0
   -3.2713   -1.8903   -1.7218 H   0  0  0  0  0  0  0  0  0  0  0  0
   -3.3203   -2.2328    1.1743 H   0  0  0  0  0  0  0  0  0  0  0  0
   -0.7425   -1.2760    2.3252 H   0  0  0  0  0  0  0  0  0  0  0  0
   -0.8447    2.1149   -1.1937 H   0  0  0  0  0  0  0  0  0  0  0  0
   -3.2280    1.1150   -2.3076 H   0  0  0  0  0  0  0  0  0  0  0  0
   -3.3058    0.4944    2.4800 H   0  0  0  0  0  0  0  0  0  0  0  0
   -0.7485    2.0177    1.7260 H   0  0  0  0  0  0  0  0  0  0  0  0
   -3.2467    2.5211    0.2461 H   0  0  0  0  0  0  0  0  0  0  0  0
  1  3  1  0  0  0  0
  1  2  1  0  0  0  0
  4 15  1  6  0  0  0
  4  9  1  0  0  0  0
  5 20  1  6  0  0  0
  5 14  1  0  0  0  0
  6  1  1  6  0  0  0
  6 14  1  0  0  0  0
  6  9  1  0  0  0  0
  7 16  1  6  0  0  0
  7 11  1  0  0  0  0
  7  5  1  0  0  0  0
  7  4  1  0  0  0  0
  8 17  1  6  0  0  0
  8  4  1  0  0  0  0
  8  6  1  0  0  0  0
  9 18  1  1  0  0  0
  9 12  1  0  0  0  0
 10 12  1  0  0  0  0
 10 19  1  0  0  0  0
 11 21  1  6  0  0  0
 11  8  1  0  0  0  0
 11  5  1  0  0  0  0
 12 22  1  1  0  0  0
 13 10  1  0  0  0  0
 13 23  1  0  0  0  0
 14 24  1  1  0  0  0
 14 12  1  0  0  0  0
M  END
