7,18
q = -1.0

 54 63  0  0  1  0  0  0  0  0999 V2000
   -0.5047    2.4120   -1.0534 C   0  0  2  0  0  0  0  0  0  0  0  0
   -0.7630    2.6460    0.5003 C   0  0  1  0  0  0  0  0  0  0  0  0
    0.4784    1.0645   -1.3640 B   0  0  1  0  0  0  0  0  0  0  0  0
    1.1324    2.7079   -1.4674 B   0  0  2  0  0  0  0  0  0  0  0  0
    0.3145    3.7348   -0.3009 B   0  0  2  0  0  0  0  0  0  0  0  0
    0.0055    1.4922    1.4822 B   0  0  2  0  0  0  0  0  0  0  0  0
    0.8566    0.4215    0.2914 B   0  0  0  0  0  0  0  0  0  0  0  0
    2.0361    1.4346   -0.5811 B   0  0  2  0  0  0  0  0  0  0  0  0
    1.9396    3.0941    0.0675 B   0  0  0  0  0  0  0  0  0  0  0  0
    0.6701    3.1267    1.3083 B   0  0  2  0  0  0  0  0  0  0  0  0
    1.7480    1.6984    1.1644 B   0  0  0  0  0  0  0  0  0  0  0  0
   -3.0433    0.1066    0.5132 C   0  0  2  0  0  0  0  0  0  0  0  0
   -2.7983   -0.1137   -1.0446 C   0  0  1  0  0  0  0  0  0  0  0  0
   -1.8092   -0.5487    1.4775 B   0  0  1  0  0  0  0  0  0  0  0  0
   -3.3688   -1.3753    1.3117 B   0  0  2  0  0  0  0  0  0  0  0  0
   -4.0244   -1.0695   -0.2887 B   0  0  2  0  0  0  0  0  0  0  0  0
   -1.3590   -0.9512   -1.3766 B   0  0  2  0  0  0  0  0  0  0  0  0
   -0.6661   -1.2776    0.2722 B   0  0  0  0  0  0  0  0  0  0  0  0
   -1.8393   -2.3002    1.1434 B   0  0  2  0  0  0  0  0  0  0  0  0
   -3.2192   -2.6242    0.0578 B   0  0  0  0  0  0  0  0  0  0  0  0
   -2.9297   -1.7680   -1.4716 B   0  0  2  0  0  0  0  0  0  0  0  0
   -1.5632   -2.5457   -0.6065 B   0  0  0  0  0  0  0  0  0  0  0  0
    0.8823   -1.1428    0.5118 N   0  3  1  0  0  0  0  0  0  0  0  0
    3.4338   -1.5715    1.3537 O   0  0  0  0  0  0  0  0  0  0  0  0
    4.1225   -1.9865   -0.7727 O   0  0  0  0  0  0  0  0  0  0  0  0
    1.7883   -1.9024   -0.3732 C   0  0  0  0  0  0  0  0  0  0  0  0
    3.2008   -1.7895    0.1780 C   0  0  0  0  0  0  0  0  0  0  0  0
    5.4915   -1.9113   -0.3340 C   0  0  0  0  0  0  0  0  0  0  0  0
   -1.2650    2.7591   -1.7673 H   0  0  0  0  0  0  0  0  0  0  0  0
   -1.6929    3.1473    0.8039 H   0  0  0  0  0  0  0  0  0  0  0  0
    0.5015    0.5410   -2.4424 H   0  0  0  0  0  0  0  0  0  0  0  0
    1.3898    3.1381   -2.5643 H   0  0  0  0  0  0  0  0  0  0  0  0
   -0.0601    4.8555   -0.5331 H   0  0  0  0  0  0  0  0  0  0  0  0
   -0.3445    1.3018    2.6120 H   0  0  0  0  0  0  0  0  0  0  0  0
    3.0617    0.9697   -1.0287 H   0  0  0  0  0  0  0  0  0  0  0  0
    2.8892    3.8395    0.1112 H   0  0  0  0  0  0  0  0  0  0  0  0
    0.5851    3.8668    2.2567 H   0  0  0  0  0  0  0  0  0  0  0  0
    2.5569    1.4286    2.0216 H   0  0  0  0  0  0  0  0  0  0  0  0
   -3.6334    0.9780    0.8305 H   0  0  0  0  0  0  0  0  0  0  0  0
   -3.2276    0.6135   -1.7482 H   0  0  0  0  0  0  0  0  0  0  0  0
   -1.6408   -0.1956    2.6098 H   0  0  0  0  0  0  0  0  0  0  0  0
   -4.1037   -1.3751    2.2677 H   0  0  0  0  0  0  0  0  0  0  0  0
   -5.1795   -0.8095   -0.5081 H   0  0  0  0  0  0  0  0  0  0  0  0
   -0.8514   -0.9069   -2.4615 H   0  0  0  0  0  0  0  0  0  0  0  0
   -1.4819   -3.0847    1.9937 H   0  0  0  0  0  0  0  0  0  0  0  0
   -3.8641   -3.6448    0.0989 H   0  0  0  0  0  0  0  0  0  0  0  0
   -3.3418   -2.0587   -2.5671 H   0  0  0  0  0  0  0  0  0  0  0  0
   -1.0083   -3.5184   -1.0684 H   0  0  0  0  0  0  0  0  0  0  0  0
    1.1637   -1.3534    1.4862 H   0  0  0  0  0  0  0  0  0  0  0  0
    1.7221   -1.5133   -1.4052 H   0  0  0  0  0  0  0  0  0  0  0  0
    1.4855   -2.9702   -0.3935 H   0  0  0  0  0  0  0  0  0  0  0  0
    5.6843   -2.6455    0.4727 H   0  0  0  0  0  0  0  0  0  0  0  0
    5.7135   -0.8955    0.0485 H   0  0  0  0  0  0  0  0  0  0  0  0
    6.1067   -2.1346   -1.2224 H   0  0  0  0  0  0  0  0  0  0  0  0
  1 29  1  6  0  0  0
  1  2  1  0  0  0  0
  2 30  1  1  0  0  0
  2 10  1  0  0  0  0
  2  6  1  0  0  0  0
  3 31  1  6  0  0  0
  3  1  1  0  0  0  0
  3  8  1  0  0  0  0
  4 32  1  6  0  0  0
  4  3  1  0  0  0  0
  4  1  1  0  0  0  0
  4  5  1  0  0  0  0
  5 33  1  6  0  0  0
  5  9  1  0  0  0  0
  5 10  1  0  0  0  0
  6 34  1  1  0  0  0
  7 23  1  0  0  0  0
  7 11  1  0  0  0  0
  8 35  1  6  0  0  0
  8  9  1  0  0  0  0
  8  7  1  0  0  0  0
  9 36  1  0  0  0  0
 10  6  1  0  0  0  0
 10 37  1  1  0  0  0
 11  6  1  0  0  0  0
 11 38  1  0  0  0  0
 12 39  1  1  0  0  0
 12 15  1  0  0  0  0
 12 14  1  0  0  0  0
 13 40  1  6  0  0  0
 13 12  1  0  0  0  0
 14 41  1  1  0  0  0
 15 14  1  0  0  0  0
 15 42  1  1  0  0  0
 16 43  1  6  0  0  0
 16 20  1  0  0  0  0
 16 15  1  0  0  0  0
 17 44  1  6  0  0  0
 17 13  1  0  0  0  0
 17 22  1  0  0  0  0
 18 23  1  0  0  0  0
 18 19  1  0  0  0  0
 19 14  1  0  0  0  0
 19 45  1  1  0  0  0
 20 46  1  0  0  0  0
 20 19  1  0  0  0  0
 21 47  1  6  0  0  0
 21 17  1  0  0  0  0
 21 13  1  0  0  0  0
 21 16  1  0  0  0  0
 22 18  1  0  0  0  0
 23 49  1  1  0  0  0
 25 28  1  0  0  0  0
 25 27  1  0  0  0  0
 26 27  1  0  0  0  0
 26 23  1  0  0  0  0
 27 24  2  0  0  0  0
 28 53  1  0  0  0  0
 28 52  1  0  0  0  0
 48 22  1  0  0  0  0
 50 26  1  0  0  0  0
 51 26  1  0  0  0  0
 54 28  1  0  0  0  0
M  CHG  1  23   1
M  END
