23,27
q = -2.0, confidence = 0.798

 28 32  0  0  1  0  0  0  0  0999 V2000
    0.4646   -1.4554    0.7342 C   0  0  2  0  0  0  0  0  0  0  0  0
    1.9476   -0.6381    0.9032 C   0  0  1  0  0  0  0  0  0  0  0  0
   -0.5132   -1.5725    1.8936 C   0  0  0  0  0  0  0  0  0  0  0  0
   -0.2860   -0.8400    2.6920 H   0  0  0  0  0  0  0  0  0  0  0  0
   -0.4839   -2.5859    2.3385 H   0  0  0  0  0  0  0  0  0  0  0  0
   -1.5378   -1.3707    1.5304 H   0  0  0  0  0  0  0  0  0  0  0  0
    2.3540   -0.0052    2.2259 C   0  0  0  0  0  0  0  0  0  0  0  0
    2.8101    0.9840    2.0376 H   0  0  0  0  0  0  0  0  0  0  0  0
    3.0963   -0.6330    2.7551 H   0  0  0  0  0  0  0  0  0  0  0  0
    1.4849    0.1374    2.8959 H   0  0  0  0  0  0  0  0  0  0  0  0
    2.7590   -1.4878   -1.6312 B   0  0  1  0  0  0  0  0  0  0  0  0
    3.6256   -1.4951   -2.4766 H   0  0  0  0  0  0  0  0  0  0  0  0
    1.2459   -0.5573   -1.8675 B   0  0  2  0  0  0  0  0  0  0  0  0
    1.0631    0.0016   -2.9293 H   0  0  0  0  0  0  0  0  0  0  0  0
    1.9122   -2.3594    0.9657 B   0  0  2  0  0  0  0  0  0  0  0  0
    2.0641   -2.8612    2.0526 H   0  0  0  0  0  0  0  0  0  0  0  0
    3.1776   -1.5000    0.0944 B   0  0  2  0  0  0  0  0  0  0  0  0
    4.2812   -1.4471    0.5845 H   0  0  0  0  0  0  0  0  0  0  0  0
    2.4113   -2.9245   -0.6399 B   0  0  0  0  0  0  0  0  0  0  0  0
    3.0027   -3.9744   -0.7435 H   0  0  0  0  0  0  0  0  0  0  0  0
    1.2023   -2.3469   -1.8122 B   0  0  1  0  0  0  0  0  0  0  0  0
    0.9098   -2.9953   -2.7916 H   0  0  0  0  0  0  0  0  0  0  0  0
    2.4812   -0.0315   -0.6431 B   0  0  0  0  0  0  0  0  0  0  0  0
    3.2303    0.9225   -0.6753 H   0  0  0  0  0  0  0  0  0  0  0  0
    0.6915   -2.8701   -0.1932 B   0  0  2  0  0  0  0  0  0  0  0  0
   -0.0102   -3.8134    0.0875 H   0  0  0  0  0  0  0  0  0  0  0  0
   -0.0477   -1.4292   -0.9368 B   0  0  0  0  0  0  0  0  0  0  0  0
   -1.2249   -1.5453   -1.1946 H   0  0  0  0  0  0  0  0  0  0  0  0
  1  2  1  0  0  0  0
  1 15  1  0  0  0  0
  1  3  1  1  0  0  0
  2 15  1  0  0  0  0
  2  7  1  1  0  0  0
  3  5  1  0  0  0  0
  3  4  1  0  0  0  0
  6  3  1  0  0  0  0
  7  9  1  0  0  0  0
  7 10  1  0  0  0  0
  8  7  1  0  0  0  0
 11 12  1  6  0  0  0
 11 23  1  0  0  0  0
 11 19  1  0  0  0  0
 11 17  1  0  0  0  0
 13 14  1  6  0  0  0
 13 21  1  0  0  0  0
 13 27  1  0  0  0  0
 13 23  1  0  0  0  0
 15 16  1  1  0  0  0
 17 18  1  1  0  0  0
 17  2  1  0  0  0  0
 19 17  1  0  0  0  0
 20 19  1  0  0  0  0
 21 22  1  6  0  0  0
 21 27  1  0  0  0  0
 21 25  1  0  0  0  0
 24 23  1  0  0  0  0
 25 26  1  1  0  0  0
 25  1  1  0  0  0  0
 25 15  1  0  0  0  0
 28 27  1  0  0  0  0
M  END
