7,18
q = -1.0, confidence = 0.01

 49 56  0  0  1  0  0  0  0  0999 V2000
   -1.4972   -1.4403   -1.0751 C   0  0  2  0  0  0  0  0  0  0  0  0
   -1.5096   -1.8375    0.4882 C   0  0  1  0  0  0  0  0  0  0  0  0
   -1.4112    0.2431   -1.3151 B   0  0  0  0  0  2  0  0  0  0  0  0
   -2.9385   -0.6685   -1.5286 B   0  0  1  0  0  0  0  0  0  0  0  0
   -2.9672   -2.0207   -0.3943 B   0  0  2  0  0  0  0  0  0  0  0  0
   -1.4269   -0.4749    1.5139 B   0  0  0  0  0  0  0  0  0  0  0  0
   -1.4150    0.9057    0.3523 B   0  0  0  0  0  0  0  0  0  0  0  0
   -2.9335    0.8395   -0.5893 B   0  0  2  0  0  0  0  0  0  0  0  0
   -3.8904   -0.5444   -0.0236 B   0  0  0  0  0  0  0  0  0  0  0  0
   -2.9545   -1.3684    1.2477 B   0  0  2  0  0  0  0  0  0  0  0  0
   -2.9370    0.4066    1.1515 B   0  0  1  0  0  0  0  0  0  0  0  0
    1.5215   -1.4425    1.0537 C   0  0  2  0  0  0  0  0  0  0  0  0
    1.5397   -1.8068   -0.5174 C   0  0  1  0  0  0  0  0  0  0  0  0
    1.4129    0.2347    1.3294 B   0  0  0  0  0  2  0  0  0  0  0  0
    2.9520   -0.6612    1.5243 B   0  0  1  0  0  0  0  0  0  0  0  0
    2.9992   -1.9890    0.3621 B   0  0  2  0  0  0  0  0  0  0  0  0
    1.4391   -0.4241   -1.5140 B   0  0  0  0  0  0  0  0  0  0  0  0
    1.4090    0.9318   -0.3238 B   0  0  0  0  0  0  0  0  0  0  0  0
    2.9279    0.8662    0.6167 B   0  0  2  0  0  0  0  0  0  0  0  0
    3.9028   -0.4933    0.0230 B   0  0  0  0  0  0  0  0  0  0  0  0
    2.9785   -1.3025   -1.2660 B   0  0  2  0  0  0  0  0  0  0  0  0
    2.9376    0.4694   -1.1324 B   0  0  1  0  0  0  0  0  0  0  0  0
    0.9720    2.3363   -0.5384 O   0  0  0  0  0  0  0  0  0  0  0  0
   -0.9971    2.3120    0.5903 O   0  0  0  0  0  0  0  0  0  0  0  0
   -0.0225    2.9186    0.0202 C   0  0  2  0  0  3  0  0  0  0  0  0
   -0.0717    4.4077   -0.0227 C   0  0  0  0  0  0  0  0  0  0  0  0
    0.9409    4.8304   -0.1397 H   0  0  0  0  0  0  0  0  0  0  0  0
   -0.5741    4.7938    0.8825 H   0  0  0  0  0  0  0  0  0  0  0  0
   -0.6874    4.7066   -0.8978 H   0  0  0  0  0  0  0  0  0  0  0  0
   -1.0613   -2.1548   -1.7871 H   0  0  0  0  0  0  0  0  0  0  0  0
   -1.0857   -2.8126    0.7686 H   0  0  0  0  0  0  0  0  0  0  0  0
   -0.9811    0.7499   -2.3196 H   0  0  0  0  0  0  0  0  0  0  0  0
   -3.3561   -0.8255   -2.6489 H   0  0  0  0  0  0  0  0  0  0  0  0
   -3.3291   -3.1335   -0.6777 H   0  0  0  0  0  0  0  0  0  0  0  0
   -0.9827   -0.5636    2.6306 H   0  0  0  0  0  0  0  0  0  0  0  0
   -3.4299    1.8615   -1.0058 H   0  0  0  0  0  0  0  0  0  0  0  0
   -5.0979   -0.5584   -0.0358 H   0  0  0  0  0  0  0  0  0  0  0  0
   -3.3845   -2.0486    2.1461 H   0  0  0  0  0  0  0  0  0  0  0  0
   -3.4509    1.1060    1.9934 H   0  0  0  0  0  0  0  0  0  0  0  0
    1.0949   -2.1774    1.7504 H   0  0  0  0  0  0  0  0  0  0  0  0
    1.1288   -2.7815   -0.8183 H   0  0  0  0  0  0  0  0  0  0  0  0
    0.9760    0.7137    2.3442 H   0  0  0  0  0  0  0  0  0  0  0  0
    3.3713   -0.8360    2.6413 H   0  0  0  0  0  0  0  0  0  0  0  0
    3.3756   -3.1026    0.6225 H   0  0  0  0  0  0  0  0  0  0  0  0
    0.9960   -0.4949   -2.6325 H   0  0  0  0  0  0  0  0  0  0  0  0
    3.4107    1.8855    1.0545 H   0  0  0  0  0  0  0  0  0  0  0  0
    5.1104   -0.4918    0.0358 H   0  0  0  0  0  0  0  0  0  0  0  0
    3.4175   -1.9580   -2.1784 H   0  0  0  0  0  0  0  0  0  0  0  0
    3.4420    1.1928   -1.9596 H   0  0  0  0  0  0  0  0  0  0  0  0
  1 30  1  6  0  0  0
  1  2  1  0  0  0  0
  2 31  1  1  0  0  0
  2 10  1  0  0  0  0
  2  6  1  0  0  0  0
  3  1  1  0  0  0  0
  4 33  1  6  0  0  0
  4  1  1  0  0  0  0
  4  8  1  0  0  0  0
  4  5  1  0  0  0  0
  5 34  1  6  0  0  0
  5  9  1  0  0  0  0
  5 10  1  0  0  0  0
  6 35  1  0  0  0  0
  7 24  1  0  0  0  0
  7 11  1  0  0  0  0
  8 36  1  6  0  0  0
  8  9  1  0  0  0  0
  8  7  1  0  0  0  0
 10 38  1  1  0  0  0
 11 10  1  0  0  0  0
 11  6  1  0  0  0  0
 11 39  1  1  0  0  0
 12 14  1  0  0  0  0
 12 15  1  0  0  0  0
 12 40  1  1  0  0  0
 13 41  1  6  0  0  0
 13 12  1  0  0  0  0
 14 42  1  0  0  0  0
 15 43  1  1  0  0  0
 16 44  1  1  0  0  0
 16 15  1  0  0  0  0
 17 22  1  0  0  0  0
 17 13  1  0  0  0  0
 18 19  1  0  0  0  0
 19 46  1  1  0  0  0
 19 15  1  0  0  0  0
 20 47  1  0  0  0  0
 20 16  1  0  0  0  0
 20 19  1  0  0  0  0
 21 48  1  6  0  0  0
 21 22  1  0  0  0  0
 21 13  1  0  0  0  0
 21 16  1  0  0  0  0
 22 49  1  6  0  0  0
 22 18  1  0  0  0  0
 23 18  1  0  0  0  0
 25 23  1  6  0  0  0
 25 24  1  0  0  0  0
 26 25  1  0  0  0  0
 26 28  1  0  0  0  0
 27 26  1  0  0  0  0
 29 26  1  0  0  0  0
 32  3  1  0  0  0  0
 37  9  1  0  0  0  0
 45 17  1  0  0  0  0
M  END
