1,4
q = -1.0, confidence = 0.0

 21 21  0  0  1  0  0  0  0  0999 V2000
    0.8231    1.0716    0.0534 S   0  0  0  0  0  1  0  0  0  0  0  0
    1.4989   -1.4730   -0.1686 N   0  0  0  0  0  0  0  0  0  0  0  0
    1.9439   -0.2172   -0.0666 C   0  0  2  0  0  3  0  0  0  0  0  0
    0.0524   -1.7281   -0.0529 C   0  0  0  0  0  3  0  0  0  0  0  0
    2.3434   -2.6310   -0.4299 C   0  0  0  0  0  0  0  0  0  0  0  0
    3.3877    0.1168   -0.0206 C   0  0  0  0  0  0  0  0  0  0  0  0
    3.8984    1.1307   -0.8611 C   0  0  0  0  0  0  0  0  0  0  0  0
    5.2507    1.4903   -0.7936 C   0  0  0  0  0  0  0  0  0  0  0  0
    6.1066    0.8557    0.1208 C   0  0  0  0  0  0  0  0  0  0  0  0
    5.6036   -0.1416    0.9722 C   0  0  0  0  0  0  0  0  0  0  0  0
    4.2545   -0.5126    0.9021 C   0  0  0  0  0  0  0  0  0  0  0  0
   -0.2600   -2.3657   -0.9094 H   0  0  0  0  0  0  0  0  0  0  0  0
   -0.1273   -2.3011    0.8874 H   0  0  0  0  0  0  0  0  0  0  0  0
    2.4054   -3.2864    0.4651 H   0  0  0  0  0  0  0  0  0  0  0  0
    1.8890   -3.2216   -1.2515 H   0  0  0  0  0  0  0  0  0  0  0  0
    3.3622   -2.3233   -0.7250 H   0  0  0  0  0  0  0  0  0  0  0  0
    3.2185    1.6283   -1.5680 H   0  0  0  0  0  0  0  0  0  0  0  0
    5.6390    2.2749   -1.4603 H   0  0  0  0  0  0  0  0  0  0  0  0
    7.1676    1.1428    0.1751 H   0  0  0  0  0  0  0  0  0  0  0  0
    6.2656   -0.6294    1.7035 H   0  0  0  0  0  0  0  0  0  0  0  0
    3.8588   -1.2758    1.5887 H   0  0  0  0  0  0  0  0  0  0  0  0
  2  3  1  0  0  0  0
  2  4  1  0  0  0  0
  3  6  1  0  0  0  0
  3  1  1  1  0  0  0
  4 13  1  0  0  0  0
  5  2  1  0  0  0  0
  5 14  1  0  0  0  0
  6 11  1  0  0  0  0
  7  8  1  0  0  0  0
  7  6  2  0  0  0  0
  8  9  2  0  0  0  0
  9 19  1  0  0  0  0
  9 10  1  0  0  0  0
 10 20  1  0  0  0  0
 11 10  2  0  0  0  0
 11 21  1  0  0  0  0
 12  4  1  0  0  0  0
 15  5  1  0  0  0  0
 16  5  1  0  0  0  0
 17  7  1  0  0  0  0
 18  8  1  0  0  0  0
M  END
