1,4
q = -1.0, confidence = 0.0

 13 13  0  0  1  0  0  0  0  0999 V2000
   -0.6724   -0.5852   -1.5350 S   0  0  0  0  0  1  0  0  0  0  0  0
   -2.1422    0.5208    2.2343 O   0  0  0  0  0  0  0  0  0  0  0  0
   -2.7543    0.0030    0.0075 N   0  0  0  0  0  0  0  0  0  0  0  0
   -1.6240    0.0761    1.2356 C   0  0  0  0  0  3  0  0  0  0  0  0
   -2.3326   -0.2654   -1.2636 C   0  0  1  0  0  3  0  0  0  0  0  0
   -3.3128   -0.2593   -2.2995 C   0  0  0  0  0  0  0  0  0  0  0  0
   -2.9846   -0.4736   -3.3261 H   0  0  0  0  0  0  0  0  0  0  0  0
   -4.6417    0.0082   -1.9997 C   0  0  0  0  0  0  0  0  0  0  0  0
   -5.3944    0.0062   -2.8030 H   0  0  0  0  0  0  0  0  0  0  0  0
   -5.0285    0.2841   -0.6631 C   0  0  0  0  0  0  0  0  0  0  0  0
   -6.0721    0.4992   -0.3966 H   0  0  0  0  0  0  0  0  0  0  0  0
   -4.0425    0.2770    0.3109 C   0  0  0  0  0  0  0  0  0  0  0  0
   -4.2027    0.4955    1.3801 H   0  0  0  0  0  0  0  0  0  0  0  0
  3 12  1  0  0  0  0
  3  4  1  0  0  0  0
  4  2  2  0  0  0  0
  5  1  1  6  0  0  0
  5  3  1  0  0  0  0
  6  8  2  0  0  0  0
  6  5  1  0  0  0  0
  7  6  1  0  0  0  0
  8 10  1  0  0  0  0
  9  8  1  0  0  0  0
 10 11  1  0  0  0  0
 10 12  2  0  0  0  0
 12 13  1  0  0  0  0
M  END
