1,2
q = -2.0, confidence = 0.606

 24 25  0  0  0  0  0  0  0  0999 V2000
   -1.2620    1.7212   -0.4760 S   0  0  0  0  0  1  0  0  0  0  0  0
   -1.0409   -1.3169   -0.5698 C   0  0  0  0  0  3  0  0  0  0  0  0
   -0.8922   -2.1326   -1.7156 C   0  0  0  0  0  0  0  0  0  0  0  0
   -0.0958   -1.9124   -2.4445 H   0  0  0  0  0  0  0  0  0  0  0  0
   -1.7411   -3.2239   -1.9669 C   0  0  0  0  0  0  0  0  0  0  0  0
   -1.5905   -3.8397   -2.8679 H   0  0  0  0  0  0  0  0  0  0  0  0
   -2.7737   -3.5260   -1.0660 C   0  0  0  0  0  0  0  0  0  0  0  0
   -3.4330   -4.3904   -1.2389 H   0  0  0  0  0  0  0  0  0  0  0  0
   -2.9778   -2.6913    0.0415 C   0  0  0  0  0  0  0  0  0  0  0  0
   -3.8222   -2.8836    0.7241 H   0  0  0  0  0  0  0  0  0  0  0  0
   -2.1356   -1.5875    0.2893 C   0  0  0  0  0  0  0  0  0  0  0  0
   -2.5179   -0.5909    1.3689 C   0  0  0  0  0  0  0  0  0  0  0  0
   -1.6065   -0.0648    1.7258 H   0  0  0  0  0  0  0  0  0  0  0  0
   -3.0080   -1.0927    2.2273 H   0  0  0  0  0  0  0  0  0  0  0  0
   -3.4591    0.4074    0.7420 C   0  0  0  0  0  0  0  0  0  0  0  0
   -4.8442    0.3336    0.9857 C   0  0  0  0  0  0  0  0  0  0  0  0
   -5.2108   -0.4143    1.7076 H   0  0  0  0  0  0  0  0  0  0  0  0
   -5.7547    1.1780    0.3364 C   0  0  0  0  0  0  0  0  0  0  0  0
   -6.8313    1.1015    0.5514 H   0  0  0  0  0  0  0  0  0  0  0  0
   -5.2769    2.1147   -0.5952 C   0  0  0  0  0  0  0  0  0  0  0  0
   -5.9766    2.7803   -1.1242 H   0  0  0  0  0  0  0  0  0  0  0  0
   -3.9053    2.2026   -0.8568 C   0  0  0  0  0  0  0  0  0  0  0  0
   -3.5226    2.9344   -1.5846 H   0  0  0  0  0  0  0  0  0  0  0  0
   -2.9761    1.3675   -0.1913 C   0  0  0  0  0  0  0  0  0  0  0  0
  1 24  1  0  0  0  0
  2 11  1  0  0  0  0
  3  2  2  0  0  0  0
  4  3  1  0  0  0  0
  5  3  1  0  0  0  0
  5  7  2  0  0  0  0
  6  5  1  0  0  0  0
  7  9  1  0  0  0  0
  8  7  1  0  0  0  0
  9 11  2  0  0  0  0
  9 10  1  0  0  0  0
 11 12  1  0  0  0  0
 12 13  1  0  0  0  0
 12 14  1  0  0  0  0
 15 16  1  0  0  0  0
 15 12  1  0  0  0  0
 16 17  1  0  0  0  0
 18 19  1  0  0  0  0
 18 16  2  0  0  0  0
 20 18  1  0  0  0  0
 21 20  1  0  0  0  0
 22 20  2  0  0  0  0
 22 24  1  0  0  0  0
 23 22  1  0  0  0  0
 24 15  2  0  0  0  0
M  END
