1,12
q = 0.0, confidence = 0.778

 30 32  0  0  0  0  0  0  0  0999 V2000
    0.5788   -1.0806    0.4710 S   0  0  0  0  0  0  0  0  0  0  0  0
   -0.3476   -2.4778   -0.1896 C   0  0  0  0  0  0  0  0  0  0  0  0
   -0.1720   -3.7983    0.2312 C   0  0  0  0  0  0  0  0  0  0  0  0
    0.5951   -4.0466    0.9801 H   0  0  0  0  0  0  0  0  0  0  0  0
   -0.9821   -4.7979   -0.3357 C   0  0  0  0  0  0  0  0  0  0  0  0
   -0.8548   -5.8452   -0.0226 H   0  0  0  0  0  0  0  0  0  0  0  0
   -1.9458   -4.4643   -1.3061 C   0  0  0  0  0  0  0  0  0  0  0  0
   -2.5680   -5.2559   -1.7508 H   0  0  0  0  0  0  0  0  0  0  0  0
   -2.1111   -3.1351   -1.7163 C   0  0  0  0  0  0  0  0  0  0  0  0
   -2.8605   -2.8682   -2.4769 H   0  0  0  0  0  0  0  0  0  0  0  0
   -1.3088   -2.1123   -1.1589 C   0  0  0  0  0  0  0  0  0  0  0  0
   -1.4016   -0.7067   -1.5378 C   0  0  0  0  0  2  0  0  0  0  0  0
   -2.0762   -0.4590   -2.3848 H   0  0  0  0  0  0  0  0  0  0  0  0
    2.2569   -1.6141    0.0810 C   0  0  0  0  0  0  0  0  0  0  0  0
    3.1947   -1.5789    1.1024 C   0  0  0  0  0  0  0  0  0  0  0  0
    2.9016   -1.2609    2.1148 H   0  0  0  0  0  0  0  0  0  0  0  0
    4.5453   -1.9611    0.8523 C   0  0  0  0  0  0  0  0  0  0  0  0
    5.5408   -1.9361    1.8720 C   0  0  0  0  0  0  0  0  0  0  0  0
    5.2554   -1.6047    2.8828 H   0  0  0  0  0  0  0  0  0  0  0  0
    6.8460   -2.3180    1.5979 C   0  0  0  0  0  0  0  0  0  0  0  0
    7.6066   -2.2915    2.3928 H   0  0  0  0  0  0  0  0  0  0  0  0
    7.2077   -2.7427    0.2910 C   0  0  0  0  0  0  0  0  0  0  0  0
    8.2463   -3.0420    0.0839 H   0  0  0  0  0  0  0  0  0  0  0  0
    6.2598   -2.7799   -0.7218 C   0  0  0  0  0  0  0  0  0  0  0  0
    6.5385   -3.1072   -1.7356 H   0  0  0  0  0  0  0  0  0  0  0  0
    4.9107   -2.3940   -0.4750 C   0  0  0  0  0  0  0  0  0  0  0  0
    3.9102   -2.4204   -1.4930 C   0  0  0  0  0  0  0  0  0  0  0  0
    4.1944   -2.7423   -2.5067 H   0  0  0  0  0  0  0  0  0  0  0  0
    2.6088   -2.0294   -1.2341 C   0  0  0  0  0  0  0  0  0  0  0  0
    1.8463   -2.0314   -2.0241 H   0  0  0  0  0  0  0  0  0  0  0  0
  2  3  1  0  0  0  0
  2  1  1  0  0  0  0
  3  4  1  0  0  0  0
  5  6  1  0  0  0  0
  5  3  2  0  0  0  0
  7  5  1  0  0  0  0
  8  7  1  0  0  0  0
  9  7  2  0  0  0  0
  9 11  1  0  0  0  0
 10  9  1  0  0  0  0
 11  2  2  0  0  0  0
 12 11  1  0  0  0  0
 13 12  1  0  0  0  0
 14  1  1  0  0  0  0
 14 15  1  0  0  0  0
 15 16  1  0  0  0  0
 17 15  2  0  0  0  0
 17 18  1  0  0  0  0
 18 19  1  0  0  0  0
 20 18  2  0  0  0  0
 20 21  1  0  0  0  0
 22 20  1  0  0  0  0
 23 22  1  0  0  0  0
 24 26  1  0  0  0  0
 24 22  2  0  0  0  0
 25 24  1  0  0  0  0
 26 17  1  0  0  0  0
 27 29  1  0  0  0  0
 27 26  2  0  0  0  0
 28 27  1  0  0  0  0
 29 14  2  0  0  0  0
 30 29  1  0  0  0  0
M  END
