1,3
q = -2.0, confidence = 0.624

 11 10  0  0  0  0  0  0  0  0999 V2000
    0.6467    0.0701   -2.4302 S   0  0  0  0  0  1  0  0  0  0  0  0
    5.6109   -0.6009   -0.0395 O   0  0  0  0  0  0  0  0  0  0  0  0
    2.0610   -0.2982    0.4456 C   0  0  0  0  0  3  0  0  0  0  0  0
    3.2198   -0.3477   -0.3113 C   0  0  0  0  0  0  0  0  0  0  0  0
    3.3589   -0.2364   -1.7561 C   0  0  0  0  0  0  0  0  0  0  0  0
    2.3651   -0.0692   -2.6769 C   0  0  0  0  0  0  0  0  0  0  0  0
    4.4833   -0.5321    0.4366 C   0  0  0  0  0  0  0  0  0  0  0  0
    2.3099   -0.3919    1.5247 H   0  0  0  0  0  0  0  0  0  0  0  0
    4.3981   -0.3079   -2.1189 H   0  0  0  0  0  0  0  0  0  0  0  0
    2.6414   -0.0158   -3.7452 H   0  0  0  0  0  0  0  0  0  0  0  0
    4.3232   -0.6121    1.5613 H   0  0  0  0  0  0  0  0  0  0  0  0
  2  7  2  0  0  0  0
  3  8  1  0  0  0  0
  4  7  1  0  0  0  0
  4  3  2  0  0  0  0
  5  4  1  0  0  0  0
  6  1  1  0  0  0  0
  6  5  2  0  0  0  0
  7 11  1  0  0  0  0
  9  5  1  0  0  0  0
 10  6  1  0  0  0  0
M  END
