1,3
q = -1.0

 23 23  0  0  0  0  0  0  0  0999 V2000
   -0.6458   -0.4101   -1.2024 S   0  0  0  0  0  0  0  0  0  0  0  0
   -0.6172    0.9082    2.7877 O   0  0  0  0  0  0  0  0  0  0  0  0
   -0.6795    0.5251    1.6275 C   0  0  0  0  0  3  0  0  0  0  0  0
   -1.8171    1.0544    0.7608 C   0  0  0  0  0  0  0  0  0  0  0  0
   -2.7615    1.9513    1.2975 C   0  0  0  0  0  0  0  0  0  0  0  0
   -2.6497    2.2322    2.3561 H   0  0  0  0  0  0  0  0  0  0  0  0
   -3.7982    2.4468    0.4980 C   0  0  0  0  0  0  0  0  0  0  0  0
   -4.5387    3.1418    0.9225 H   0  0  0  0  0  0  0  0  0  0  0  0
   -3.8938    2.0617   -0.8529 C   0  0  0  0  0  0  0  0  0  0  0  0
   -4.7044    2.4577   -1.4834 H   0  0  0  0  0  0  0  0  0  0  0  0
   -2.9515    1.1824   -1.4069 C   0  0  0  0  0  0  0  0  0  0  0  0
   -3.0116    0.8941   -2.4673 H   0  0  0  0  0  0  0  0  0  0  0  0
   -1.9279    0.6764   -0.5882 C   0  0  0  0  0  0  0  0  0  0  0  0
   -1.6266   -1.9199   -1.7350 C   0  0  0  0  0  0  0  0  0  0  0  0
   -2.0615   -1.5701   -2.6963 H   0  0  0  0  0  0  0  0  0  0  0  0
   -0.6245   -3.0358   -2.0185 C   0  0  0  0  0  0  0  0  0  0  0  0
   -0.2002   -3.4417   -1.0798 H   0  0  0  0  0  0  0  0  0  0  0  0
    0.2173   -2.6868   -2.6479 H   0  0  0  0  0  0  0  0  0  0  0  0
   -1.1423   -3.8630   -2.5454 H   0  0  0  0  0  0  0  0  0  0  0  0
   -2.7447   -2.3145   -0.7805 C   0  0  0  0  0  0  0  0  0  0  0  0
   -3.3133   -3.1560   -1.2285 H   0  0  0  0  0  0  0  0  0  0  0  0
   -3.4552   -1.4843   -0.6046 H   0  0  0  0  0  0  0  0  0  0  0  0
   -2.3534   -2.6569    0.1949 H   0  0  0  0  0  0  0  0  0  0  0  0
  1 13  1  0  0  0  0
  3  2  2  0  0  0  0
  4  5  1  0  0  0  0
  4  3  1  0  0  0  0
  5  6  1  0  0  0  0
  7  8  1  0  0  0  0
  7  5  2  0  0  0  0
  9  7  1  0  0  0  0
 10  9  1  0  0  0  0
 11  9  2  0  0  0  0
 11 13  1  0  0  0  0
 12 11  1  0  0  0  0
 13  4  2  0  0  0  0
 14  1  1  0  0  0  0
 14 20  1  0  0  0  0
 15 14  1  0  0  0  0
 16 14  1  0  0  0  0
 16 17  1  0  0  0  0
 18 16  1  0  0  0  0
 19 16  1  0  0  0  0
 20 22  1  0  0  0  0
 20 23  1  0  0  0  0
 21 20  1  0  0  0  0
M  END
