1,2
q = 0.0, confidence = 0.918

 14 14  0  0  0  0  0  0  0  0999 V2000
   -0.5107    1.2620    2.0842 S   0  0  0  0  0  1  0  0  0  0  0  0
   -0.3933    2.3993    0.7185 C   0  0  0  0  0  3  0  0  0  0  0  0
    0.8646    3.1469    0.4703 C   0  0  0  0  0  0  0  0  0  0  0  0
    2.1101    2.7359    0.9979 C   0  0  0  0  0  0  0  0  0  0  0  0
    3.2821    3.4395    0.6925 C   0  0  0  0  0  0  0  0  0  0  0  0
    3.2386    4.5613   -0.1511 C   0  0  0  0  0  0  0  0  0  0  0  0
    2.0067    4.9801   -0.6814 C   0  0  0  0  0  0  0  0  0  0  0  0
    0.8321    4.2836   -0.3715 C   0  0  0  0  0  0  0  0  0  0  0  0
   -1.3101    2.9823    0.5262 H   0  0  0  0  0  0  0  0  0  0  0  0
    2.1465    1.8547    1.6562 H   0  0  0  0  0  0  0  0  0  0  0  0
    4.2417    3.1063    1.1170 H   0  0  0  0  0  0  0  0  0  0  0  0
    4.1613    5.1103   -0.3930 H   0  0  0  0  0  0  0  0  0  0  0  0
    1.9606    5.8604   -1.3407 H   0  0  0  0  0  0  0  0  0  0  0  0
   -0.1303    4.6123   -0.7935 H   0  0  0  0  0  0  0  0  0  0  0  0
  2  1  1  0  0  0  0
  3  2  1  0  0  0  0
  3  4  1  0  0  0  0
  4 10  1  0  0  0  0
  5  4  2  0  0  0  0
  5 11  1  0  0  0  0
  6  5  1  0  0  0  0
  7  8  1  0  0  0  0
  7  6  2  0  0  0  0
  8  3  2  0  0  0  0
  9  2  1  0  0  0  0
 12  6  1  0  0  0  0
 13  7  1  0  0  0  0
 14  8  1  0  0  0  0
M  END
