1,2
q = 0.0, confidence = 1.0

 35 37  0  0  0  0  0  0  0  0999 V2000
   -1.9392    0.2618    1.6258 S   0  0  0  0  0  0  0  0  0  0  0  0
    0.5641    0.9599   -0.1005 C   0  0  0  0  0  3  0  0  0  0  0  0
    1.8142    2.7809    0.2865 N   0  0  0  0  0  0  0  0  0  0  0  0
    0.5724    3.2403    0.2371 N   0  0  0  0  0  2  0  0  0  0  0  0
    1.8886    1.4140    0.0814 C   0  0  0  0  0  0  0  0  0  0  0  0
   -0.1534    2.1400    0.0053 N   0  0  0  0  0  0  0  0  0  0  0  0
    3.1147    0.6094    0.0559 C   0  0  0  0  0  0  0  0  0  0  0  0
    4.3647    1.1052   -0.3851 C   0  0  0  0  0  0  0  0  0  0  0  0
    4.4608    2.1385   -0.7454 H   0  0  0  0  0  0  0  0  0  0  0  0
    5.4890    0.2691   -0.4243 C   0  0  0  0  0  0  0  0  0  0  0  0
    6.4510    0.6704   -0.7772 H   0  0  0  0  0  0  0  0  0  0  0  0
    5.3859   -1.0765   -0.0390 C   0  0  0  0  0  0  0  0  0  0  0  0
    6.2697   -1.7311   -0.0763 H   0  0  0  0  0  0  0  0  0  0  0  0
    4.1457   -1.5850    0.3806 C   0  0  0  0  0  0  0  0  0  0  0  0
    4.0465   -2.6417    0.6705 H   0  0  0  0  0  0  0  0  0  0  0  0
    3.0225   -0.7534    0.4322 C   0  0  0  0  0  0  0  0  0  0  0  0
    2.0474   -1.1558    0.7533 H   0  0  0  0  0  0  0  0  0  0  0  0
   -1.5608    2.2825   -0.2268 C   0  0  0  0  0  0  0  0  0  0  0  0
   -1.9825    3.2751   -1.1246 C   0  0  0  0  0  0  0  0  0  0  0  0
   -1.2210    3.9252   -1.5778 H   0  0  0  0  0  0  0  0  0  0  0  0
   -3.3375    3.4096   -1.4466 C   0  0  0  0  0  0  0  0  0  0  0  0
   -3.6610    4.1857   -2.1548 H   0  0  0  0  0  0  0  0  0  0  0  0
   -4.2669    2.5263   -0.8757 C   0  0  0  0  0  0  0  0  0  0  0  0
   -5.3338    2.6026   -1.1334 H   0  0  0  0  0  0  0  0  0  0  0  0
   -3.8523    1.5453    0.0333 C   0  0  0  0  0  0  0  0  0  0  0  0
   -4.6018    0.8807    0.4823 H   0  0  0  0  0  0  0  0  0  0  0  0
   -2.4951    1.4111    0.3974 C   0  0  0  0  0  0  0  0  0  0  0  0
    2.8668    3.7323    0.6112 C   0  0  0  0  0  0  0  0  0  0  0  0
    3.3618    4.1024   -0.3079 H   0  0  0  0  0  0  0  0  0  0  0  0
    3.6158    3.2385    1.2562 H   0  0  0  0  0  0  0  0  0  0  0  0
    2.4028    4.5804    1.1441 H   0  0  0  0  0  0  0  0  0  0  0  0
   -3.3108   -0.9156    1.7446 C   0  0  0  0  0  0  0  0  0  0  0  0
   -4.2142   -0.4673    2.2013 H   0  0  0  0  0  0  0  0  0  0  0  0
   -2.9249   -1.7211    2.3973 H   0  0  0  0  0  0  0  0  0  0  0  0
   -3.5167   -1.3583    0.7506 H   0  0  0  0  0  0  0  0  0  0  0  0
  1 32  1  0  0  0  0
  2  6  1  0  0  0  0
  2  5  2  0  0  0  0
  3 28  1  0  0  0  0
  4  3  1  0  0  0  0
  5  3  1  0  0  0  0
  6  4  1  0  0  0  0
  7  5  1  0  0  0  0
  7 16  1  0  0  0  0
  8  7  2  0  0  0  0
  9  8  1  0  0  0  0
 10  8  1  0  0  0  0
 10 12  2  0  0  0  0
 11 10  1  0  0  0  0
 12 14  1  0  0  0  0
 13 12  1  0  0  0  0
 14 16  2  0  0  0  0
 14 15  1  0  0  0  0
 16 17  1  0  0  0  0
 18  6  1  0  0  0  0
 18 27  1  0  0  0  0
 19 18  2  0  0  0  0
 20 19  1  0  0  0  0
 21 19  1  0  0  0  0
 21 23  2  0  0  0  0
 22 21  1  0  0  0  0
 23 25  1  0  0  0  0
 24 23  1  0  0  0  0
 25 27  2  0  0  0  0
 25 26  1  0  0  0  0
 27  1  1  0  0  0  0
 28 31  1  0  0  0  0
 28 30  1  0  0  0  0
 29 28  1  0  0  0  0
 32 33  1  0  0  0  0
 32 34  1  0  0  0  0
 35 32  1  0  0  0  0
M  END
