1,16
q = -1.0

 39 40  0  0  0  0  0  0  0  0999 V2000
    0.9798   -0.0699    1.4673 S   0  0  0  0  0  1  0  0  0  0  0  0
    2.3964    0.2868    0.0167 P   0  0  0  0  0  4  0  0  0  0  0  0
    2.2793   -2.7030   -1.1392 Si  0  0  0  0  0  0  0  0  0  0  0  0
    4.1596   -2.9746   -1.0609 C   0  0  0  0  0  0  0  0  0  0  0  0
    4.5925   -2.6119   -0.1069 H   0  0  0  0  0  0  0  0  0  0  0  0
    4.6758   -2.4465   -1.8890 H   0  0  0  0  0  0  0  0  0  0  0  0
    4.3924   -4.0564   -1.1528 H   0  0  0  0  0  0  0  0  0  0  0  0
    1.6018   -3.4783   -2.7202 C   0  0  0  0  0  0  0  0  0  0  0  0
    1.7069   -4.5827   -2.6957 H   0  0  0  0  0  0  0  0  0  0  0  0
    2.1434   -3.1003   -3.6114 H   0  0  0  0  0  0  0  0  0  0  0  0
    0.5327   -3.2120   -2.8430 H   0  0  0  0  0  0  0  0  0  0  0  0
    1.4882   -3.5128    0.3772 C   0  0  0  0  0  0  0  0  0  0  0  0
    1.8011   -4.5753    0.4508 H   0  0  0  0  0  0  0  0  0  0  0  0
    0.3822   -3.4779    0.2994 H   0  0  0  0  0  0  0  0  0  0  0  0
    1.7761   -2.9907    1.3114 H   0  0  0  0  0  0  0  0  0  0  0  0
    1.8869   -0.8458   -1.2409 C   0  0  0  0  0  3  0  0  0  0  0  0
    2.0536   -0.4513   -2.2629 H   0  0  0  0  0  0  0  0  0  0  0  0
    4.0938    0.1130    0.6836 C   0  0  0  0  0  0  0  0  0  0  0  0
    4.2985   -0.5012    1.9320 C   0  0  0  0  0  0  0  0  0  0  0  0
    3.4241   -0.7971    2.5341 H   0  0  0  0  0  0  0  0  0  0  0  0
    5.6047   -0.7396    2.3866 C   0  0  0  0  0  0  0  0  0  0  0  0
    5.7653   -1.2178    3.3646 H   0  0  0  0  0  0  0  0  0  0  0  0
    6.7029   -0.3751    1.5915 C   0  0  0  0  0  0  0  0  0  0  0  0
    7.7267   -0.5693    1.9457 H   0  0  0  0  0  0  0  0  0  0  0  0
    6.4982    0.2362    0.3422 C   0  0  0  0  0  0  0  0  0  0  0  0
    7.3598    0.5214   -0.2802 H   0  0  0  0  0  0  0  0  0  0  0  0
    5.1965    0.4823   -0.1142 C   0  0  0  0  0  0  0  0  0  0  0  0
    5.0342    0.9600   -1.0933 H   0  0  0  0  0  0  0  0  0  0  0  0
    2.2891    2.0105   -0.5899 C   0  0  0  0  0  0  0  0  0  0  0  0
    1.4913    2.3238   -1.7102 C   0  0  0  0  0  0  0  0  0  0  0  0
    0.9713    1.5265   -2.2666 H   0  0  0  0  0  0  0  0  0  0  0  0
    1.3236    3.6641   -2.0897 C   0  0  0  0  0  0  0  0  0  0  0  0
    0.7002    3.9034   -2.9644 H   0  0  0  0  0  0  0  0  0  0  0  0
    1.9381    4.6920   -1.3552 C   0  0  0  0  0  0  0  0  0  0  0  0
    1.7993    5.7421   -1.6547 H   0  0  0  0  0  0  0  0  0  0  0  0
    2.7302    4.3790   -0.2382 C   0  0  0  0  0  0  0  0  0  0  0  0
    3.2120    5.1813    0.3409 H   0  0  0  0  0  0  0  0  0  0  0  0
    2.9075    3.0418    0.1452 C   0  0  0  0  0  0  0  0  0  0  0  0
    3.5230    2.7978    1.0246 H   0  0  0  0  0  0  0  0  0  0  0  0
  2 18  1  0  0  0  0
  2  1  1  0  0  0  0
  3  4  1  0  0  0  0
  3 12  1  0  0  0  0
  4  5  1  0  0  0  0
  6  4  1  0  0  0  0
  7  4  1  0  0  0  0
  8  9  1  0  0  0  0
  8  3  1  0  0  0  0
 10  8  1  0  0  0  0
 11  8  1  0  0  0  0
 12 13  1  0  0  0  0
 12 15  1  0  0  0  0
 14 12  1  0  0  0  0
 16  3  1  0  0  0  0
 16  2  1  0  0  0  0
 17 16  1  0  0  0  0
 18 19  1  0  0  0  0
 19 21  2  0  0  0  0
 19 20  1  0  0  0  0
 21 22  1  0  0  0  0
 23 24  1  0  0  0  0
 23 21  1  0  0  0  0
 25 23  2  0  0  0  0
 26 25  1  0  0  0  0
 27 25  1  0  0  0  0
 27 18  2  0  0  0  0
 28 27  1  0  0  0  0
 29  2  1  0  0  0  0
 29 38  1  0  0  0  0
 30 29  2  0  0  0  0
 31 30  1  0  0  0  0
 32 30  1  0  0  0  0
 32 34  2  0  0  0  0
 33 32  1  0  0  0  0
 34 36  1  0  0  0  0
 35 34  1  0  0  0  0
 36 38  2  0  0  0  0
 36 37  1  0  0  0  0
 38 39  1  0  0  0  0
M  END
