1,2
q = -1.0

 21 22  0  0  0  0  0  0  0  0999 V2000
    1.5491    0.9993   -1.4909 S   0  0  0  0  0  1  0  0  0  0  0  0
    1.2583   -1.5807   -0.0440 C   0  0  0  0  0  2  0  0  0  0  0  0
    2.6368   -1.5232    0.0092 N   0  0  0  0  0  0  0  0  0  0  0  0
    3.1286   -2.8020   -0.1764 C   0  0  0  0  0  0  0  0  0  0  0  0
    4.1963   -3.0428   -0.2060 H   0  0  0  0  0  0  0  0  0  0  0  0
    2.1569   -3.6644   -0.3416 N   0  0  0  0  0  0  0  0  0  0  0  0
    1.0243   -2.9019   -0.2540 N   0  0  0  0  0  0  0  0  0  0  0  0
   -0.2623   -3.5346   -0.4946 C   0  0  0  0  0  0  0  0  0  0  0  0
   -1.0391   -2.9376    0.0199 H   0  0  0  0  0  0  0  0  0  0  0  0
   -0.4655   -3.5794   -1.5831 H   0  0  0  0  0  0  0  0  0  0  0  0
   -0.2246   -4.5592   -0.0837 H   0  0  0  0  0  0  0  0  0  0  0  0
    3.4407   -0.3497    0.1087 C   0  0  0  0  0  0  0  0  0  0  0  0
    3.0564    0.8282   -0.5906 C   0  0  0  0  0  0  0  0  0  0  0  0
    3.9719    1.9100   -0.5648 C   0  0  0  0  0  0  0  0  0  0  0  0
    3.7010    2.8255   -1.1121 H   0  0  0  0  0  0  0  0  0  0  0  0
    5.1810    1.8372    0.1352 C   0  0  0  0  0  0  0  0  0  0  0  0
    5.8610    2.7026    0.1338 H   0  0  0  0  0  0  0  0  0  0  0  0
    5.5158    0.6788    0.8572 C   0  0  0  0  0  0  0  0  0  0  0  0
    6.4488    0.6260    1.4364 H   0  0  0  0  0  0  0  0  0  0  0  0
    4.6382   -0.4123    0.8411 C   0  0  0  0  0  0  0  0  0  0  0  0
    4.8748   -1.3240    1.4102 H   0  0  0  0  0  0  0  0  0  0  0  0
  1 13  1  0  0  0  0
  2  3  1  0  0  0  0
  3 12  1  0  0  0  0
  4  3  1  0  0  0  0
  5  4  1  0  0  0  0
  6  7  1  0  0  0  0
  6  4  2  0  0  0  0
  7  2  1  0  0  0  0
  8  7  1  0  0  0  0
  8 11  1  0  0  0  0
  8  9  1  0  0  0  0
 10  8  1  0  0  0  0
 12 20  1  0  0  0  0
 13 14  1  0  0  0  0
 13 12  2  0  0  0  0
 14 16  2  0  0  0  0
 15 14  1  0  0  0  0
 16 18  1  0  0  0  0
 17 16  1  0  0  0  0
 18 19  1  0  0  0  0
 20 18  2  0  0  0  0
 20 21  1  0  0  0  0
M  END
