1,2
q = -2.0, confidence = 0.72

 15 15  0  0  0  0  0  0  0  0999 V2000
    1.5740   -0.2354    1.2638 S   0  0  0  0  0  1  0  0  0  0  0  0
    0.8852    0.1389   -1.7199 C   0  0  0  0  0  3  0  0  0  0  0  0
    0.3762    0.2352   -2.7100 H   0  0  0  0  0  0  0  0  0  0  0  0
    2.2613    0.0998   -1.9269 C   0  0  0  0  0  0  0  0  0  0  0  0
    2.6430    0.1734   -2.9659 H   0  0  0  0  0  0  0  0  0  0  0  0
    3.3255   -0.0259   -0.9603 C   0  0  0  0  0  0  0  0  0  0  0  0
    4.6766   -0.0113   -1.4283 C   0  0  0  0  0  0  0  0  0  0  0  0
    4.8379    0.0936   -2.5138 H   0  0  0  0  0  0  0  0  0  0  0  0
    5.7688   -0.1184   -0.5748 C   0  0  0  0  0  0  0  0  0  0  0  0
    6.7901   -0.0988   -0.9862 H   0  0  0  0  0  0  0  0  0  0  0  0
    5.5689   -0.2521    0.8198 C   0  0  0  0  0  0  0  0  0  0  0  0
    6.4275   -0.3389    1.5029 H   0  0  0  0  0  0  0  0  0  0  0  0
    4.2682   -0.2746    1.3168 C   0  0  0  0  0  0  0  0  0  0  0  0
    4.0823   -0.3805    2.3977 H   0  0  0  0  0  0  0  0  0  0  0  0
    3.1409   -0.1655    0.4607 C   0  0  0  0  0  0  0  0  0  0  0  0
  3  2  1  0  0  0  0
  4  2  2  0  0  0  0
  4  6  1  0  0  0  0
  5  4  1  0  0  0  0
  6 15  1  0  0  0  0
  7  6  2  0  0  0  0
  7  9  1  0  0  0  0
  8  7  1  0  0  0  0
  9 11  2  0  0  0  0
 10  9  1  0  0  0  0
 11 13  1  0  0  0  0
 11 12  1  0  0  0  0
 13 14  1  0  0  0  0
 15  1  1  0  0  0  0
 15 13  2  0  0  0  0
M  END
