1,4
q = -1.0

 39 40  0  0  1  0  0  0  0  0999 V2000
   -0.6911   -1.3960   -0.3365 S   0  0  0  0  0  1  0  0  0  0  0  0
    1.8114    4.6234   -0.0168 N   0  0  0  0  0  0  0  0  0  0  0  0
   -7.3061   -0.2283   -0.1105 N   0  0  0  0  0  0  0  0  0  0  0  0
    0.6824    1.0284   -0.0753 C   0  0  0  0  0  3  0  0  0  0  0  0
   -0.7510    1.2340   -0.1690 C   0  0  0  0  0  0  0  0  0  0  0  0
   -1.2642    2.5595   -0.2768 C   0  0  0  0  0  0  0  0  0  0  0  0
   -2.3441    2.7022   -0.4288 H   0  0  0  0  0  0  0  0  0  0  0  0
   -0.4434    3.6773   -0.2416 C   0  0  0  0  0  0  0  0  0  0  0  0
   -0.8916    4.6735   -0.3479 H   0  0  0  0  0  0  0  0  0  0  0  0
    0.9675    3.5180   -0.0903 C   0  0  0  0  0  0  0  0  0  0  0  0
    1.4769    2.1969   -0.0366 C   0  0  0  0  0  0  0  0  0  0  0  0
    2.5630    2.0745    0.0408 H   0  0  0  0  0  0  0  0  0  0  0  0
   -1.5747    0.0635   -0.2439 C   0  0  2  0  0  3  0  0  0  0  0  0
   -3.0400    0.0171   -0.2250 C   0  0  0  0  0  0  0  0  0  0  0  0
   -3.8158    0.8693    0.6016 C   0  0  0  0  0  0  0  0  0  0  0  0
   -3.3058    1.5886    1.2588 H   0  0  0  0  0  0  0  0  0  0  0  0
   -5.2093    0.7889    0.6520 C   0  0  0  0  0  0  0  0  0  0  0  0
   -5.7482    1.4633    1.3302 H   0  0  0  0  0  0  0  0  0  0  0  0
   -5.9211   -0.1565   -0.1374 C   0  0  0  0  0  0  0  0  0  0  0  0
   -5.1468   -1.0306   -0.9524 C   0  0  0  0  0  0  0  0  0  0  0  0
   -5.6392   -1.7879   -1.5763 H   0  0  0  0  0  0  0  0  0  0  0  0
   -3.7560   -0.9396   -0.9878 C   0  0  0  0  0  0  0  0  0  0  0  0
   -3.1849   -1.6266   -1.6305 H   0  0  0  0  0  0  0  0  0  0  0  0
    3.2444    4.4293   -0.0187 C   0  0  0  0  0  0  0  0  0  0  0  0
    3.5702    3.7884    0.8297 H   0  0  0  0  0  0  0  0  0  0  0  0
    3.7478    5.4077    0.0909 H   0  0  0  0  0  0  0  0  0  0  0  0
    3.6217    3.9509   -0.9555 H   0  0  0  0  0  0  0  0  0  0  0  0
    1.2834    5.9502   -0.2496 C   0  0  0  0  0  0  0  0  0  0  0  0
    0.8852    6.0902   -1.2838 H   0  0  0  0  0  0  0  0  0  0  0  0
    2.0838    6.6964   -0.0893 H   0  0  0  0  0  0  0  0  0  0  0  0
    0.4592    6.1904    0.4563 H   0  0  0  0  0  0  0  0  0  0  0  0
   -7.9880   -1.2680   -0.8492 C   0  0  0  0  0  0  0  0  0  0  0  0
   -7.7685   -1.2146   -1.9393 H   0  0  0  0  0  0  0  0  0  0  0  0
   -9.0800   -1.1519   -0.7230 H   0  0  0  0  0  0  0  0  0  0  0  0
   -7.7107   -2.2931   -0.5066 H   0  0  0  0  0  0  0  0  0  0  0  0
   -8.0542    0.6289    0.7819 C   0  0  0  0  0  0  0  0  0  0  0  0
   -7.8256    0.4387    1.8578 H   0  0  0  0  0  0  0  0  0  0  0  0
   -9.1364    0.4619    0.6307 H   0  0  0  0  0  0  0  0  0  0  0  0
   -7.8498    1.7057    0.5876 H   0  0  0  0  0  0  0  0  0  0  0  0
  3 36  1  0  0  0  0
  4 11  1  0  0  0  0
  5  4  2  0  0  0  0
  6  8  2  0  0  0  0
  6  5  1  0  0  0  0
  7  6  1  0  0  0  0
  8 10  1  0  0  0  0
  9  8  1  0  0  0  0
 10 11  2  0  0  0  0
 10  2  1  0  0  0  0
 11 12  1  0  0  0  0
 13  1  1  1  0  0  0
 13 14  1  0  0  0  0
 13  5  1  0  0  0  0
 14 15  1  0  0  0  0
 15 17  2  0  0  0  0
 15 16  1  0  0  0  0
 17 18  1  0  0  0  0
 19  3  1  0  0  0  0
 19 17  1  0  0  0  0
 20 19  2  0  0  0  0
 21 20  1  0  0  0  0
 22 20  1  0  0  0  0
 22 14  2  0  0  0  0
 23 22  1  0  0  0  0
 24  2  1  0  0  0  0
 24 26  1  0  0  0  0
 24 25  1  0  0  0  0
 27 24  1  0  0  0  0
 28 30  1  0  0  0  0
 28  2  1  0  0  0  0
 28 31  1  0  0  0  0
 29 28  1  0  0  0  0
 32 34  1  0  0  0  0
 32 35  1  0  0  0  0
 32  3  1  0  0  0  0
 33 32  1  0  0  0  0
 36 37  1  0  0  0  0
 38 36  1  0  0  0  0
 39 36  1  0  0  0  0
M  END
