1,3
q = -1.0

 31 32  0  0  0  0  0  0  0  0999 V2000
    1.9016   -0.4083   -0.8397 S   0  0  0  0  0  0  0  0  0  0  0  0
   -1.5714   -2.8050   -0.6260 O   0  0  0  0  0  0  0  0  0  0  0  0
   -0.5403   -2.1239   -0.6485 C   0  0  0  0  0  3  0  0  0  0  0  0
    0.7604   -2.8405   -0.8316 C   0  0  0  0  0  0  0  0  0  0  0  0
    1.9690   -2.2163   -0.8392 C   0  0  0  0  0  0  0  0  0  0  0  0
    3.2966   -2.8447   -0.8999 C   0  0  0  0  0  0  0  0  0  0  0  0
    3.4861   -4.1559   -0.3995 C   0  0  0  0  0  0  0  0  0  0  0  0
    4.7426   -4.7687   -0.4597 C   0  0  0  0  0  0  0  0  0  0  0  0
    5.8391   -4.0849   -1.0117 C   0  0  0  0  0  0  0  0  0  0  0  0
    5.6677   -2.7805   -1.5014 C   0  0  0  0  0  0  0  0  0  0  0  0
    4.4117   -2.1642   -1.4440 C   0  0  0  0  0  0  0  0  0  0  0  0
    2.7545   -0.0417    0.7028 C   0  0  0  0  0  0  0  0  0  0  0  0
    2.3528   -0.6442    1.9081 C   0  0  0  0  0  0  0  0  0  0  0  0
    3.0314   -0.3245    3.0867 C   0  0  0  0  0  0  0  0  0  0  0  0
    4.0998    0.6024    3.0905 C   0  0  0  0  0  0  0  0  0  0  0  0
    4.8087    0.9425    4.3763 C   0  0  0  0  0  0  0  0  0  0  0  0
    4.4696    1.1965    1.8703 C   0  0  0  0  0  0  0  0  0  0  0  0
    3.8076    0.8804    0.6736 C   0  0  0  0  0  0  0  0  0  0  0  0
    0.6909   -3.9341   -0.9633 H   0  0  0  0  0  0  0  0  0  0  0  0
    2.6387   -4.6848    0.0609 H   0  0  0  0  0  0  0  0  0  0  0  0
    4.8709   -5.7864   -0.0609 H   0  0  0  0  0  0  0  0  0  0  0  0
    6.8277   -4.5664   -1.0528 H   0  0  0  0  0  0  0  0  0  0  0  0
    6.5208   -2.2361   -1.9337 H   0  0  0  0  0  0  0  0  0  0  0  0
    4.2804   -1.1450   -1.8374 H   0  0  0  0  0  0  0  0  0  0  0  0
    1.5080   -1.3493    1.9120 H   0  0  0  0  0  0  0  0  0  0  0  0
    2.7205   -0.7962    4.0325 H   0  0  0  0  0  0  0  0  0  0  0  0
    5.6220    1.6754    4.2143 H   0  0  0  0  0  0  0  0  0  0  0  0
    4.1052    1.3733    5.1192 H   0  0  0  0  0  0  0  0  0  0  0  0
    5.2518    0.0379    4.8428 H   0  0  0  0  0  0  0  0  0  0  0  0
    5.2886    1.9323    1.8497 H   0  0  0  0  0  0  0  0  0  0  0  0
    4.0962    1.3649   -0.2706 H   0  0  0  0  0  0  0  0  0  0  0  0
  1  5  1  0  0  0  0
  1 12  1  0  0  0  0
  3  2  2  0  0  0  0
  4  3  1  0  0  0  0
  5  4  2  0  0  0  0
  6  5  1  0  0  0  0
  6  7  1  0  0  0  0
  7 20  1  0  0  0  0
  8  7  2  0  0  0  0
  8 21  1  0  0  0  0
  9  8  1  0  0  0  0
 10 11  1  0  0  0  0
 10  9  2  0  0  0  0
 11  6  2  0  0  0  0
 12 13  1  0  0  0  0
 13 25  1  0  0  0  0
 13 14  2  0  0  0  0
 14 15  1  0  0  0  0
 14 26  1  0  0  0  0
 15 16  1  0  0  0  0
 16 29  1  0  0  0  0
 16 28  1  0  0  0  0
 17 15  2  0  0  0  0
 18 12  2  0  0  0  0
 18 17  1  0  0  0  0
 19  4  1  0  0  0  0
 22  9  1  0  0  0  0
 23 10  1  0  0  0  0
 24 11  1  0  0  0  0
 27 16  1  0  0  0  0
 30 17  1  0  0  0  0
 31 18  1  0  0  0  0
M  END
