1,6
q = -1.0, confidence = 0.0

 24 25  0  0  1  0  0  0  0  0999 V2000
   -0.3111   -1.9395   -0.4922 S   0  0  0  0  0  1  0  0  0  0  0  0
   -4.1875   -0.9586   -0.8392 O   0  0  0  0  0  0  0  0  0  0  0  0
   -2.3447   -3.1897   -1.6732 N   0  0  0  0  0  0  0  0  0  0  0  0
   -1.9635   -2.0827   -0.9905 C   0  0  1  0  0  3  0  0  0  0  0  0
   -2.8048   -0.9815   -0.6162 C   0  0  0  0  0  0  0  0  0  0  0  0
   -2.3486    0.1535    0.0553 C   0  0  0  0  0  3  0  0  0  0  0  0
   -3.5377    0.9431    0.2689 C   0  0  0  0  0  0  0  0  0  0  0  0
   -3.8085    2.1879    0.8827 C   0  0  0  0  0  0  0  0  0  0  0  0
   -5.1265    2.6526    0.9070 C   0  0  0  0  0  0  0  0  0  0  0  0
   -6.1809    1.9021    0.3309 C   0  0  0  0  0  0  0  0  0  0  0  0
   -5.9476    0.6643   -0.2852 C   0  0  0  0  0  0  0  0  0  0  0  0
   -4.6235    0.2167   -0.2982 C   0  0  0  0  0  0  0  0  0  0  0  0
   -1.3725   -4.2478   -1.9189 C   0  0  0  0  0  0  0  0  0  0  0  0
   -3.6231   -3.3466   -2.3591 C   0  0  0  0  0  0  0  0  0  0  0  0
   -2.9956    2.7782    1.3267 H   0  0  0  0  0  0  0  0  0  0  0  0
   -5.3535    3.6200    1.3792 H   0  0  0  0  0  0  0  0  0  0  0  0
   -7.2070    2.2986    0.3659 H   0  0  0  0  0  0  0  0  0  0  0  0
   -6.7574    0.0730   -0.7352 H   0  0  0  0  0  0  0  0  0  0  0  0
   -0.8152   -4.4807   -0.9899 H   0  0  0  0  0  0  0  0  0  0  0  0
   -1.9086   -5.1512   -2.2640 H   0  0  0  0  0  0  0  0  0  0  0  0
   -0.6303   -3.9444   -2.6893 H   0  0  0  0  0  0  0  0  0  0  0  0
   -4.2847   -2.4916   -2.1587 H   0  0  0  0  0  0  0  0  0  0  0  0
   -3.4534   -3.4253   -3.4547 H   0  0  0  0  0  0  0  0  0  0  0  0
   -4.1246   -4.2770   -2.0189 H   0  0  0  0  0  0  0  0  0  0  0  0
  2  5  1  0  0  0  0
  2 12  1  0  0  0  0
  3  4  1  0  0  0  0
  4  5  1  0  0  0  0
  4  1  1  1  0  0  0
  5  6  2  0  0  0  0
  6  7  1  0  0  0  0
  7  8  1  0  0  0  0
  8  9  2  0  0  0  0
  8 15  1  0  0  0  0
  9 16  1  0  0  0  0
 10 17  1  0  0  0  0
 10  9  1  0  0  0  0
 11 10  2  0  0  0  0
 12 11  1  0  0  0  0
 12  7  2  0  0  0  0
 13  3  1  0  0  0  0
 13 19  1  0  0  0  0
 14 22  1  0  0  0  0
 14 24  1  0  0  0  0
 14  3  1  0  0  0  0
 18 11  1  0  0  0  0
 20 13  1  0  0  0  0
 21 13  1  0  0  0  0
 23 14  1  0  0  0  0
M  END
