2,5
q = -1.0

 20 20  0  0  1  0  0  0  0  0999 V2000
   -0.7840    1.8065   -0.5422 S   0  0  0  0  0  0  0  0  0  0  0  0
   -1.3024    0.2123   -0.4839 C   0  0  0  0  0  3  0  0  0  0  0  0
   -2.3625   -0.6248   -0.2926 C   0  0  1  0  0  3  0  0  0  0  0  0
   -1.9252   -2.0495   -0.2312 C   0  0  0  0  0  0  0  0  0  0  0  0
   -0.1017   -2.2457   -0.3289 S   0  0  0  0  0  1  0  0  0  0  0  0
   -2.6177   -3.0413   -0.1018 O   0  0  0  0  0  0  0  0  0  0  0  0
   -3.7690   -0.2059   -0.1329 C   0  0  0  0  0  0  0  0  0  0  0  0
   -4.1481    1.1463   -0.3326 C   0  0  0  0  0  0  0  0  0  0  0  0
   -3.3924    1.8886   -0.6265 H   0  0  0  0  0  0  0  0  0  0  0  0
   -5.4728    1.5593   -0.1772 C   0  0  0  0  0  0  0  0  0  0  0  0
   -5.7288    2.6180   -0.3446 H   0  0  0  0  0  0  0  0  0  0  0  0
   -6.4884    0.6490    0.1872 C   0  0  0  0  0  0  0  0  0  0  0  0
   -6.1135   -0.6941    0.3816 C   0  0  0  0  0  0  0  0  0  0  0  0
   -6.8824   -1.4315    0.6631 H   0  0  0  0  0  0  0  0  0  0  0  0
   -4.7889   -1.1207    0.2266 C   0  0  0  0  0  0  0  0  0  0  0  0
   -4.5295   -2.1762    0.3742 H   0  0  0  0  0  0  0  0  0  0  0  0
   -7.9137    1.1079    0.3572 C   0  0  0  0  0  0  0  0  0  0  0  0
   -8.5835    0.2693    0.6292 H   0  0  0  0  0  0  0  0  0  0  0  0
   -8.3046    1.5662   -0.5756 H   0  0  0  0  0  0  0  0  0  0  0  0
   -7.9980    1.8806    1.1504 H   0  0  0  0  0  0  0  0  0  0  0  0
  1  2  2  0  0  0  0
  3  2  1  1  0  0  0
  3  4  1  0  0  0  0
  3  7  1  0  0  0  0
  4  6  2  0  0  0  0
  5  4  1  0  0  0  0
  7 15  1  0  0  0  0
  8 10  1  0  0  0  0
  8  7  2  0  0  0  0
  9  8  1  0  0  0  0
 10 12  2  0  0  0  0
 11 10  1  0  0  0  0
 12 17  1  0  0  0  0
 12 13  1  0  0  0  0
 13 14  1  0  0  0  0
 15 16  1  0  0  0  0
 15 13  2  0  0  0  0
 17 18  1  0  0  0  0
 17 20  1  0  0  0  0
 19 17  1  0  0  0  0
M  END
