2,4
q = -1.0

 34 36  0  0  0  0  0  0  0  0999 V2000
   -1.0221   -0.0772   -0.2620 P   0  0  0  0  0  4  0  0  0  0  0  0
    0.2278   -0.2690   -1.8462 S   0  0  0  0  0  1  0  0  0  0  0  0
   -0.2226   -0.7975    1.1832 C   0  0  0  0  0  0  0  0  0  0  0  0
    1.1973   -0.7699    1.1835 C   0  0  0  0  0  3  0  0  0  0  0  0
    1.8046   -1.2674    2.3617 C   0  0  0  0  0  0  0  0  0  0  0  0
    1.0546   -1.7656    3.4390 C   0  0  0  0  0  0  0  0  0  0  0  0
   -0.3495   -1.7940    3.3900 C   0  0  0  0  0  0  0  0  0  0  0  0
   -0.9967   -1.3044    2.2501 C   0  0  0  0  0  0  0  0  0  0  0  0
   -1.4134    1.6709    0.1025 C   0  0  0  0  0  0  0  0  0  0  0  0
   -1.5248    2.5784   -0.9686 C   0  0  0  0  0  0  0  0  0  0  0  0
   -1.8249    3.9224   -0.7102 C   0  0  0  0  0  0  0  0  0  0  0  0
   -2.0061    4.3618    0.6119 C   0  0  0  0  0  0  0  0  0  0  0  0
   -1.8859    3.4574    1.6787 C   0  0  0  0  0  0  0  0  0  0  0  0
   -1.5878    2.1094    1.4293 C   0  0  0  0  0  0  0  0  0  0  0  0
   -2.6126   -0.9172   -0.5613 C   0  0  0  0  0  0  0  0  0  0  0  0
   -2.5798   -2.2195   -1.1025 C   0  0  0  0  0  0  0  0  0  0  0  0
   -3.7779   -2.9158   -1.3063 C   0  0  0  0  0  0  0  0  0  0  0  0
   -5.0062   -2.3182   -0.9748 C   0  0  0  0  0  0  0  0  0  0  0  0
   -5.0380   -1.0209   -0.4405 C   0  0  0  0  0  0  0  0  0  0  0  0
   -3.8427   -0.3148   -0.2329 C   0  0  0  0  0  0  0  0  0  0  0  0
    2.9019   -1.2808    2.4475 H   0  0  0  0  0  0  0  0  0  0  0  0
    1.5781   -2.1492    4.3291 H   0  0  0  0  0  0  0  0  0  0  0  0
   -0.9332   -2.1994    4.2299 H   0  0  0  0  0  0  0  0  0  0  0  0
   -2.0963   -1.3210    2.1806 H   0  0  0  0  0  0  0  0  0  0  0  0
   -1.3442    2.2268   -1.9965 H   0  0  0  0  0  0  0  0  0  0  0  0
   -1.9049    4.6345   -1.5452 H   0  0  0  0  0  0  0  0  0  0  0  0
   -2.2304    5.4204    0.8126 H   0  0  0  0  0  0  0  0  0  0  0  0
   -2.0115    3.8050    2.7150 H   0  0  0  0  0  0  0  0  0  0  0  0
   -1.4678    1.4032    2.2646 H   0  0  0  0  0  0  0  0  0  0  0  0
   -1.6120   -2.6707   -1.3712 H   0  0  0  0  0  0  0  0  0  0  0  0
   -3.7537   -3.9309   -1.7303 H   0  0  0  0  0  0  0  0  0  0  0  0
   -5.9457   -2.8675   -1.1388 H   0  0  0  0  0  0  0  0  0  0  0  0
   -6.0000   -0.5508   -0.1867 H   0  0  0  0  0  0  0  0  0  0  0  0
   -3.8644    0.7051    0.1795 H   0  0  0  0  0  0  0  0  0  0  0  0
  1  9  1  0  0  0  0
  1  3  1  0  0  0  0
  2  1  1  0  0  0  0
  3  4  2  0  0  0  0
  3  8  1  0  0  0  0
  4  5  1  0  0  0  0
  5 21  1  0  0  0  0
  5  6  2  0  0  0  0
  6 22  1  0  0  0  0
  7  6  1  0  0  0  0
  7 23  1  0  0  0  0
  8  7  2  0  0  0  0
  9 14  1  0  0  0  0
 10 11  1  0  0  0  0
 10  9  2  0  0  0  0
 11 12  2  0  0  0  0
 12 27  1  0  0  0  0
 12 13  1  0  0  0  0
 13 28  1  0  0  0  0
 14 13  2  0  0  0  0
 14 29  1  0  0  0  0
 15  1  1  0  0  0  0
 15 20  1  0  0  0  0
 16 15  2  0  0  0  0
 17 16  1  0  0  0  0
 17 18  2  0  0  0  0
 18 19  1  0  0  0  0
 19 20  2  0  0  0  0
 19 33  1  0  0  0  0
 20 34  1  0  0  0  0
 24  8  1  0  0  0  0
 25 10  1  0  0  0  0
 26 11  1  0  0  0  0
 30 16  1  0  0  0  0
 31 17  1  0  0  0  0
 32 18  1  0  0  0  0
M  END
