1,4
q = -1.0

 31 31  0  0  1  0  0  0  0  0999 V2000
    2.5334   -0.6623   -0.4719 S   0  0  0  0  0  0  0  0  0  0  0  0
    2.6750    1.1836   -0.6595 C   0  0  2  0  0  0  0  0  0  0  0  0
    1.3159    1.7693   -0.3942 C   0  0  2  0  0  3  0  0  0  0  0  0
    0.1628    1.0677   -0.2625 C   0  0  0  0  0  2  0  0  0  0  0  0
   -1.1428    1.7087   -0.0179 C   0  0  0  0  0  0  0  0  0  0  0  0
   -1.4303    2.3028    1.2332 C   0  0  0  0  0  0  0  0  0  0  0  0
   -2.7000    2.8353    1.5011 C   0  0  0  0  0  0  0  0  0  0  0  0
   -3.7064    2.7904    0.5230 C   0  0  0  0  0  0  0  0  0  0  0  0
   -3.4292    2.2155   -0.7294 C   0  0  0  0  0  0  0  0  0  0  0  0
   -2.1636    1.6780   -0.9957 C   0  0  0  0  0  0  0  0  0  0  0  0
    3.1768   -0.9688    1.2507 C   0  0  0  0  0  0  0  0  0  0  0  0
    2.4712   -0.1416    2.3192 C   0  0  0  0  0  0  0  0  0  0  0  0
    4.6972   -0.8263    1.2588 C   0  0  0  0  0  0  0  0  0  0  0  0
    1.3589    3.5500   -0.3389 Cl  0  0  0  0  0  0  0  0  0  0  0  0
    3.2227    1.4872   -2.0578 C   0  0  0  0  0  0  0  0  0  0  0  0
    3.4024    1.5320    0.1061 H   0  0  0  0  0  0  0  0  0  0  0  0
   -0.6390    2.3358    1.9978 H   0  0  0  0  0  0  0  0  0  0  0  0
   -2.9046    3.2912    2.4823 H   0  0  0  0  0  0  0  0  0  0  0  0
   -4.7033    3.2065    0.7336 H   0  0  0  0  0  0  0  0  0  0  0  0
   -4.2100    2.1821   -1.5048 H   0  0  0  0  0  0  0  0  0  0  0  0
   -1.9505    1.2094   -1.9685 H   0  0  0  0  0  0  0  0  0  0  0  0
    2.8857   -2.0371    1.3501 H   0  0  0  0  0  0  0  0  0  0  0  0
    1.3780   -0.3181    2.2986 H   0  0  0  0  0  0  0  0  0  0  0  0
    2.6445    0.9460    2.1872 H   0  0  0  0  0  0  0  0  0  0  0  0
    2.8611   -0.4263    3.3185 H   0  0  0  0  0  0  0  0  0  0  0  0
    5.1717   -1.4497    0.4762 H   0  0  0  0  0  0  0  0  0  0  0  0
    5.0945   -1.1480    2.2434 H   0  0  0  0  0  0  0  0  0  0  0  0
    5.0117    0.2274    1.1063 H   0  0  0  0  0  0  0  0  0  0  0  0
    4.2438    1.0775   -2.1855 H   0  0  0  0  0  0  0  0  0  0  0  0
    3.2544    2.5846   -2.2058 H   0  0  0  0  0  0  0  0  0  0  0  0
    2.5632    1.0522   -2.8353 H   0  0  0  0  0  0  0  0  0  0  0  0
  1 11  1  0  0  0  0
  2  1  1  0  0  0  0
  2  3  1  0  0  0  0
  2 16  1  1  0  0  0
  3 14  1  6  0  0  0
  3  4  1  0  0  0  0
  4  5  1  0  0  0  0
  5  6  1  0  0  0  0
  6  7  2  0  0  0  0
  6 17  1  0  0  0  0
  7 18  1  0  0  0  0
  8 19  1  0  0  0  0
  8  7  1  0  0  0  0
  9  8  2  0  0  0  0
 10  9  1  0  0  0  0
 10  5  2  0  0  0  0
 11 13  1  0  0  0  0
 11 22  1  0  0  0  0
 11 12  1  0  0  0  0
 12 25  1  0  0  0  0
 13 27  1  0  0  0  0
 15  2  1  0  0  0  0
 20  9  1  0  0  0  0
 21 10  1  0  0  0  0
 23 12  1  0  0  0  0
 24 12  1  0  0  0  0
 26 13  1  0  0  0  0
 28 13  1  0  0  0  0
 29 15  1  0  0  0  0
 30 15  1  0  0  0  0
 31 15  1  0  0  0  0
M  END
