1,9
q = -1.0

 33 32  0  0  0  0  0  0  0  0999 V2000
   -1.6754   -1.5991   -0.1392 S   0  0  0  0  0  1  0  0  0  0  0  0
   -3.0036    2.8248    0.0446 O   0  0  0  0  0  0  0  0  0  0  0  0
   -1.3006    3.3634   -1.3078 O   0  0  0  0  0  0  0  0  0  0  0  0
    0.7430    3.0291    0.9407 O   0  0  0  0  0  0  0  0  0  0  0  0
    1.6501    4.1270   -0.8130 O   0  0  0  0  0  0  0  0  0  0  0  0
   -4.3374   -1.7518    1.0582 O   0  0  0  0  0  0  0  0  0  0  0  0
   -5.4660    0.2177    1.3706 O   0  0  0  0  0  0  0  0  0  0  0  0
   -3.4465    0.3228    0.4556 N   0  0  0  0  0  0  0  0  0  0  0  0
   -0.0407    0.8065   -0.8817 C   0  0  0  0  0  2  0  0  0  0  0  0
   -1.3652    1.1149   -0.5167 C   0  0  0  0  0  0  0  0  0  0  0  0
    0.9299    1.9155   -1.2341 C   0  0  0  0  0  0  0  0  0  0  0  0
   -2.2183    0.0136   -0.0566 C   0  0  0  0  0  0  0  0  0  0  0  0
   -1.9678    2.4767   -0.5357 C   0  0  0  0  0  0  0  0  0  0  0  0
    1.0520    3.0555   -0.2413 C   0  0  0  0  0  0  0  0  0  0  0  0
   -4.4131   -0.5431    0.9698 C   0  0  0  0  0  0  0  0  0  0  0  0
   -1.8018    4.7052   -1.3022 C   0  0  0  0  0  0  0  0  0  0  0  0
    1.9334    5.2188    0.0711 C   0  0  0  0  0  0  0  0  0  0  0  0
   -6.5919   -0.5095    1.9074 C   0  0  0  0  0  0  0  0  0  0  0  0
   -7.5002   -1.0309    0.8061 C   0  0  0  0  0  0  0  0  0  0  0  0
   -3.6375    1.3545    0.4835 H   0  0  0  0  0  0  0  0  0  0  0  0
    1.9574    1.5142   -1.3397 H   0  0  0  0  0  0  0  0  0  0  0  0
    0.6790    2.3497   -2.2238 H   0  0  0  0  0  0  0  0  0  0  0  0
   -1.8279    5.1077   -0.2697 H   0  0  0  0  0  0  0  0  0  0  0  0
   -1.1032    5.2853   -1.9306 H   0  0  0  0  0  0  0  0  0  0  0  0
   -2.8278    4.7433   -1.7185 H   0  0  0  0  0  0  0  0  0  0  0  0
    2.6274    4.9046    0.8770 H   0  0  0  0  0  0  0  0  0  0  0  0
    2.3995    6.0032   -0.5511 H   0  0  0  0  0  0  0  0  0  0  0  0
    1.0043    5.5977    0.5429 H   0  0  0  0  0  0  0  0  0  0  0  0
   -6.2126   -1.3415    2.5353 H   0  0  0  0  0  0  0  0  0  0  0  0
   -7.1111    0.2254    2.5529 H   0  0  0  0  0  0  0  0  0  0  0  0
   -8.3938   -1.5139    1.2503 H   0  0  0  0  0  0  0  0  0  0  0  0
   -7.8423   -0.2066    0.1492 H   0  0  0  0  0  0  0  0  0  0  0  0
   -6.9730   -1.7858    0.1908 H   0  0  0  0  0  0  0  0  0  0  0  0
  1 12  1  0  0  0  0
  3 16  1  0  0  0  0
  3 13  1  0  0  0  0
  5 14  1  0  0  0  0
  5 17  1  0  0  0  0
  7 18  1  0  0  0  0
  8 20  1  0  0  0  0
  8 15  1  0  0  0  0
  9 10  1  0  0  0  0
 10 12  2  0  0  0  0
 11  9  1  0  0  0  0
 11 14  1  0  0  0  0
 12  8  1  0  0  0  0
 13 10  1  0  0  0  0
 13  2  2  0  0  0  0
 14  4  2  0  0  0  0
 15  6  2  0  0  0  0
 15  7  1  0  0  0  0
 16 23  1  0  0  0  0
 17 28  1  0  0  0  0
 17 26  1  0  0  0  0
 18 29  1  0  0  0  0
 18 30  1  0  0  0  0
 19 31  1  0  0  0  0
 19 18  1  0  0  0  0
 21 11  1  0  0  0  0
 22 11  1  0  0  0  0
 24 16  1  0  0  0  0
 25 16  1  0  0  0  0
 27 17  1  0  0  0  0
 32 19  1  0  0  0  0
 33 19  1  0  0  0  0
M  END
