1,5
q = -2.0, confidence = 0.55

 11 10  0  0  0  0  0  0  0  0999 V2000
   -2.3249   -0.5833    0.0457 S   0  0  0  0  0  1  0  0  0  0  0  0
    2.3289   -2.6037    2.2082 N   0  0  0  0  0  0  0  0  0  0  0  0
   -5.3866   -2.5171   -0.4843 N   0  0  0  0  0  0  0  0  0  0  0  0
    1.3222   -2.3960    1.6236 C   0  0  0  0  0  0  0  0  0  0  0  0
    0.0968   -2.1472    0.9494 C   0  0  0  0  0  3  0  0  0  0  0  0
   -0.7554   -3.2497    0.9433 C   0  0  0  0  0  0  0  0  0  0  0  0
   -0.3610   -4.1869    1.3770 H   0  0  0  0  0  0  0  0  0  0  0  0
   -2.0990   -3.3279    0.4909 C   0  0  0  0  0  0  0  0  0  0  0  0
   -2.5932   -4.3111    0.5061 H   0  0  0  0  0  0  0  0  0  0  0  0
   -2.8682   -2.2354    0.1234 C   0  0  0  0  0  0  0  0  0  0  0  0
   -4.2496   -2.3996   -0.2047 C   0  0  0  0  0  0  0  0  0  0  0  0
  1 10  1  0  0  0  0
  3 11  3  0  0  0  0
  4  2  3  0  0  0  0
  5  4  1  0  0  0  0
  6  5  2  0  0  0  0
  6  7  1  0  0  0  0
  8  9  1  0  0  0  0
  8  6  1  0  0  0  0
 10  8  2  0  0  0  0
 11 10  1  0  0  0  0
M  END
