5,29
q = -1.0

 29 29  0  0  0  0  0  0  0  0999 V2000
    2.5438   -0.6878   -0.3795 N   0  0  0  0  0  0  0  0  0  0  0  0
    2.1465    0.1660   -0.7853 H   0  0  0  0  0  0  0  0  0  0  0  0
    2.0457   -2.6264    0.7585 N   0  0  0  0  0  0  0  0  0  0  0  0
    3.0472   -2.8424    0.7674 H   0  0  0  0  0  0  0  0  0  0  0  0
   -1.2590   -3.1424    0.0250 S   0  0  0  0  0  1  0  0  0  0  0  0
    3.9973   -0.7037   -0.2083 C   0  0  0  0  0  0  0  0  0  0  0  0
    4.2227   -1.2899    0.7133 H   0  0  0  0  0  0  0  0  0  0  0  0
    4.7241   -1.3556   -1.3974 C   0  0  0  0  0  0  0  0  0  0  0  0
    4.4343   -0.8080   -2.3212 H   0  0  0  0  0  0  0  0  0  0  0  0
    4.3703   -2.3998   -1.5310 H   0  0  0  0  0  0  0  0  0  0  0  0
    6.2463   -1.3042   -1.2140 C   0  0  0  0  0  0  0  0  0  0  0  0
    6.7480   -1.7504   -2.0969 H   0  0  0  0  0  0  0  0  0  0  0  0
    6.5328   -1.9356   -0.3425 H   0  0  0  0  0  0  0  0  0  0  0  0
    6.7344    0.1316   -0.9795 C   0  0  0  0  0  0  0  0  0  0  0  0
    7.8317    0.1439   -0.8169 H   0  0  0  0  0  0  0  0  0  0  0  0
    6.5472    0.7347   -1.8960 H   0  0  0  0  0  0  0  0  0  0  0  0
    6.0125    0.7805    0.2086 C   0  0  0  0  0  0  0  0  0  0  0  0
    6.3402    1.8317    0.3417 H   0  0  0  0  0  0  0  0  0  0  0  0
    6.2922    0.2486    1.1456 H   0  0  0  0  0  0  0  0  0  0  0  0
    4.4894    0.7316    0.0405 C   0  0  0  0  0  0  0  0  0  0  0  0
    3.9712    1.1495    0.9283 H   0  0  0  0  0  0  0  0  0  0  0  0
    4.1908    1.3590   -0.8308 H   0  0  0  0  0  0  0  0  0  0  0  0
    0.1658   -4.2256    0.4135 C   0  0  0  0  0  0  0  0  0  0  0  0
   -0.2754   -5.1295    0.8821 H   0  0  0  0  0  0  0  0  0  0  0  0
    0.6919   -4.5509   -0.5102 H   0  0  0  0  0  0  0  0  0  0  0  0
    1.1716   -3.6224    1.3881 C   0  0  0  0  0  0  0  0  0  0  0  0
    0.6343   -3.1653    2.2467 H   0  0  0  0  0  0  0  0  0  0  0  0
    1.8416   -4.4099    1.7892 H   0  0  0  0  0  0  0  0  0  0  0  0
    1.6332   -1.5143    0.1485 C   0  0  0  0  0  2  0  0  0  0  0  0
  1  6  1  0  0  0  0
  1 29  1  0  0  0  0
  2  1  1  0  0  0  0
  3  4  1  0  0  0  0
  3 26  1  0  0  0  0
  5 23  1  0  0  0  0
  6 20  1  0  0  0  0
  6  7  1  0  0  0  0
  8 11  1  0  0  0  0
  8  6  1  0  0  0  0
  9  8  1  0  0  0  0
 10  8  1  0  0  0  0
 11 14  1  0  0  0  0
 11 13  1  0  0  0  0
 12 11  1  0  0  0  0
 14 15  1  0  0  0  0
 14 17  1  0  0  0  0
 16 14  1  0  0  0  0
 17 18  1  0  0  0  0
 17 19  1  0  0  0  0
 20 17  1  0  0  0  0
 20 21  1  0  0  0  0
 22 20  1  0  0  0  0
 23 24  1  0  0  0  0
 23 26  1  0  0  0  0
 25 23  1  0  0  0  0
 26 28  1  0  0  0  0
 26 27  1  0  0  0  0
 29  3  1  0  0  0  0
M  END
