1,13
q = -1.0

 17 17  0  0  0  0  0  0  0  0999 V2000
    0.6712   -2.2611   -0.7008 C   0  0  0  0  0  3  0  0  0  0  0  0
    0.1301   -3.3340   -0.4611 O   0  0  0  0  0  0  0  0  0  0  0  0
    2.1344   -2.2318   -1.0911 C   0  0  0  0  0  0  0  0  0  0  0  0
    2.7111   -1.0655   -1.6382 C   0  0  0  0  0  0  0  0  0  0  0  0
    4.0835   -0.9941   -1.9117 C   0  0  0  0  0  0  0  0  0  0  0  0
    4.5335   -0.0755   -2.3110 H   0  0  0  0  0  0  0  0  0  0  0  0
    4.8907   -2.1058   -1.6296 C   0  0  0  0  0  0  0  0  0  0  0  0
    5.9739   -2.0432   -1.8118 H   0  0  0  0  0  0  0  0  0  0  0  0
    4.3284   -3.2876   -1.1153 C   0  0  0  0  0  0  0  0  0  0  0  0
    4.9721   -4.1542   -0.9018 H   0  0  0  0  0  0  0  0  0  0  0  0
    2.9542   -3.3526   -0.8571 C   0  0  0  0  0  0  0  0  0  0  0  0
    2.4816   -4.2555   -0.4419 H   0  0  0  0  0  0  0  0  0  0  0  0
    1.5493    0.2395   -2.0496 S   0  0  0  0  0  0  0  0  0  0  0  0
    2.3845    1.7775   -1.5500 C   0  0  0  0  0  0  0  0  0  0  0  0
    2.6049    1.8168   -0.4685 H   0  0  0  0  0  0  0  0  0  0  0  0
    1.6819    2.5788   -1.8454 H   0  0  0  0  0  0  0  0  0  0  0  0
    3.3185    1.8858   -2.1314 H   0  0  0  0  0  0  0  0  0  0  0  0
  1  2  2  0  0  0  0
  3 11  1  0  0  0  0
  3  1  1  0  0  0  0
  4  3  2  0  0  0  0
  5  4  1  0  0  0  0
  5  7  2  0  0  0  0
  6  5  1  0  0  0  0
  7  9  1  0  0  0  0
  8  7  1  0  0  0  0
  9 10  1  0  0  0  0
  9 11  2  0  0  0  0
 11 12  1  0  0  0  0
 13  4  1  0  0  0  0
 13 14  1  0  0  0  0
 14 15  1  0  0  0  0
 16 14  1  0  0  0  0
 17 14  1  0  0  0  0
M  END
