1,6
q = 0.0, confidence = 0.638

 26 26  0  0  0  0  0  0  0  0999 V2000
   -0.3444   -2.5908    0.3726 S   0  0  1  0  0  3  0  0  0  0  0  0
    0.3275   -3.7308   -0.3776 O   0  0  0  0  0  1  0  0  0  0  0  0
   -6.1127    0.3396   -1.1404 O   0  0  0  0  0  0  0  0  0  0  0  0
   -6.6256   -1.6661   -1.8370 O   0  0  0  0  0  0  0  0  0  0  0  0
   -5.8532   -0.8475   -1.3423 N   0  0  0  0  0  0  0  0  0  0  0  0
   -1.2681    0.0589    0.4409 C   0  0  0  0  0  2  0  0  0  0  0  0
   -1.6576    0.9904    0.8879 H   0  0  0  0  0  0  0  0  0  0  0  0
   -2.3185   -0.8568   -0.0281 C   0  0  0  0  0  0  0  0  0  0  0  0
   -3.6149   -0.4182   -0.3678 C   0  0  0  0  0  0  0  0  0  0  0  0
   -3.9129    0.6281   -0.2182 H   0  0  0  0  0  0  0  0  0  0  0  0
   -4.4998   -1.3287   -0.9554 C   0  0  0  0  0  0  0  0  0  0  0  0
   -4.1650   -2.6698   -1.2060 C   0  0  0  0  0  0  0  0  0  0  0  0
   -4.9078   -3.3239   -1.6811 H   0  0  0  0  0  0  0  0  0  0  0  0
   -2.8896   -3.1291   -0.8330 C   0  0  0  0  0  0  0  0  0  0  0  0
   -2.5810   -4.1698   -1.0094 H   0  0  0  0  0  0  0  0  0  0  0  0
   -2.0098   -2.2245   -0.2422 C   0  0  0  0  0  0  0  0  0  0  0  0
   -0.7322   -3.2509    2.0948 C   0  0  0  0  0  0  0  0  0  0  0  0
    0.2777   -3.1384    2.5458 H   0  0  0  0  0  0  0  0  0  0  0  0
   -1.7223   -2.3714    2.8441 C   0  0  0  0  0  0  0  0  0  0  0  0
   -2.7377   -2.4269    2.4035 H   0  0  0  0  0  0  0  0  0  0  0  0
   -1.3791   -1.3191    2.8774 H   0  0  0  0  0  0  0  0  0  0  0  0
   -1.7861   -2.7323    3.8913 H   0  0  0  0  0  0  0  0  0  0  0  0
   -1.1314   -4.7135    1.9757 C   0  0  0  0  0  0  0  0  0  0  0  0
   -1.1257   -5.1770    2.9832 H   0  0  0  0  0  0  0  0  0  0  0  0
   -0.4252   -5.2656    1.3269 H   0  0  0  0  0  0  0  0  0  0  0  0
   -2.1556   -4.8196    1.5623 H   0  0  0  0  0  0  0  0  0  0  0  0
  1  2  1  6  0  0  0
  1 17  1  0  0  0  0
  4  5  2  0  0  0  0
  5  3  2  0  0  0  0
  5 11  1  0  0  0  0
  6  7  1  0  0  0  0
  8  6  1  0  0  0  0
  9 10  1  0  0  0  0
  9  8  2  0  0  0  0
 11  9  1  0  0  0  0
 12 11  2  0  0  0  0
 12 14  1  0  0  0  0
 13 12  1  0  0  0  0
 14 16  2  0  0  0  0
 15 14  1  0  0  0  0
 16  8  1  0  0  0  0
 16  1  1  0  0  0  0
 17 18  1  0  0  0  0
 17 19  1  0  0  0  0
 19 21  1  0  0  0  0
 19 22  1  0  0  0  0
 20 19  1  0  0  0  0
 23 17  1  0  0  0  0
 23 24  1  0  0  0  0
 25 23  1  0  0  0  0
 26 23  1  0  0  0  0
M  END
