1,12
q = 0.0, confidence = 0.788

 17 17  0  0  0  0  0  0  0  0999 V2000
    0.0000    1.9033    0.8217 S   0  0  0  0  0  0  0  0  0  0  0  0
    1.6833    2.2476    0.2781 C   0  0  0  0  0  0  0  0  0  0  0  0
    2.5429    3.1544    0.9045 C   0  0  0  0  0  0  0  0  0  0  0  0
    2.2018    3.7485    1.7662 H   0  0  0  0  0  0  0  0  0  0  0  0
    3.8540    3.2963    0.4143 C   0  0  0  0  0  0  0  0  0  0  0  0
    4.5397    4.0125    0.8919 H   0  0  0  0  0  0  0  0  0  0  0  0
    4.2871    2.5290   -0.6826 C   0  0  0  0  0  0  0  0  0  0  0  0
    5.3124    2.6521   -1.0637 H   0  0  0  0  0  0  0  0  0  0  0  0
    3.4211    1.6122   -1.2927 C   0  0  0  0  0  0  0  0  0  0  0  0
    3.7540    1.0039   -2.1472 H   0  0  0  0  0  0  0  0  0  0  0  0
    2.0996    1.4524   -0.8157 C   0  0  0  0  0  0  0  0  0  0  0  0
    1.1385    0.5168   -1.3918 C   0  0  0  0  0  2  0  0  0  0  0  0
    1.4495   -0.0124   -2.3170 H   0  0  0  0  0  0  0  0  0  0  0  0
   -0.7832    3.5406    0.5728 C   0  0  0  0  0  0  0  0  0  0  0  0
   -0.2998    4.2686    1.2509 H   0  0  0  0  0  0  0  0  0  0  0  0
   -1.8481    3.4046    0.8363 H   0  0  0  0  0  0  0  0  0  0  0  0
   -0.7133    3.8340   -0.4893 H   0  0  0  0  0  0  0  0  0  0  0  0
  2  1  1  0  0  0  0
  2  3  1  0  0  0  0
  3  4  1  0  0  0  0
  5  6  1  0  0  0  0
  5  3  2  0  0  0  0
  7  5  1  0  0  0  0
  8  7  1  0  0  0  0
  9 11  1  0  0  0  0
  9  7  2  0  0  0  0
 10  9  1  0  0  0  0
 11  2  2  0  0  0  0
 12 11  1  0  0  0  0
 13 12  1  0  0  0  0
 14  1  1  0  0  0  0
 14 16  1  0  0  0  0
 14 15  1  0  0  0  0
 17 14  1  0  0  0  0
M  END
