1,2
q = 0.0, confidence = 1.0

 25 25  0  0  0  0  0  0  0  0999 V2000
    1.1035    1.7496   -0.3636 S   0  0  0  0  0  0  0  0  0  0  0  0
   -1.3204   -0.2784   -0.1677 C   0  0  0  0  0  2  0  0  0  0  0  0
   -3.3531    0.7162   -0.4538 C   0  0  0  0  0  0  0  0  0  0  0  0
   -4.0771    1.4178   -0.8785 H   0  0  0  0  0  0  0  0  0  0  0  0
   -3.5083   -0.3079    0.4420 C   0  0  0  0  0  0  0  0  0  0  0  0
   -4.3977   -0.6718    0.9647 H   0  0  0  0  0  0  0  0  0  0  0  0
   -1.3661    1.7285   -1.6381 C   0  0  0  0  0  0  0  0  0  0  0  0
   -2.1605    2.3280   -2.1245 H   0  0  0  0  0  0  0  0  0  0  0  0
   -0.7816    1.2277   -2.4378 H   0  0  0  0  0  0  0  0  0  0  0  0
   -0.4642    2.6345   -0.7955 C   0  0  0  0  0  0  0  0  0  0  0  0
   -0.9934    2.9580    0.1230 H   0  0  0  0  0  0  0  0  0  0  0  0
   -0.1734    3.5322   -1.3766 H   0  0  0  0  0  0  0  0  0  0  0  0
    1.3955    2.2905    1.3704 C   0  0  0  0  0  0  0  0  0  0  0  0
    2.3878    1.8321    1.5584 H   0  0  0  0  0  0  0  0  0  0  0  0
    1.5153    3.3936    1.3425 H   0  0  0  0  0  0  0  0  0  0  0  0
    0.3630    1.8251    2.3838 C   0  0  0  0  0  0  0  0  0  0  0  0
   -0.6583    2.1919    2.1521 H   0  0  0  0  0  0  0  0  0  0  0  0
    0.6309    2.2017    3.3923 H   0  0  0  0  0  0  0  0  0  0  0  0
    0.3327    0.7175    2.4159 H   0  0  0  0  0  0  0  0  0  0  0  0
   -1.9961   -1.9598    1.5748 C   0  0  0  0  0  0  0  0  0  0  0  0
   -2.8882   -2.6080    1.6556 H   0  0  0  0  0  0  0  0  0  0  0  0
   -1.7679   -1.5196    2.5668 H   0  0  0  0  0  0  0  0  0  0  0  0
   -1.1316   -2.5507    1.2103 H   0  0  0  0  0  0  0  0  0  0  0  0
   -2.0121    0.7126   -0.8176 N   0  0  0  0  0  0  0  0  0  0  0  0
   -2.2634   -0.9007    0.6066 N   0  0  0  0  0  0  0  0  0  0  0  0
  1 13  1  0  0  0  0
  2 25  1  0  0  0  0
  3  5  2  0  0  0  0
  4  3  1  0  0  0  0
  5 25  1  0  0  0  0
  5  6  1  0  0  0  0
  7 24  1  0  0  0  0
  7 10  1  0  0  0  0
  8  7  1  0  0  0  0
  9  7  1  0  0  0  0
 10  1  1  0  0  0  0
 10 11  1  0  0  0  0
 12 10  1  0  0  0  0
 13 14  1  0  0  0  0
 13 16  1  0  0  0  0
 15 13  1  0  0  0  0
 16 19  1  0  0  0  0
 16 18  1  0  0  0  0
 17 16  1  0  0  0  0
 20 21  1  0  0  0  0
 20 22  1  0  0  0  0
 23 20  1  0  0  0  0
 24  3  1  0  0  0  0
 24  2  1  0  0  0  0
 25 20  1  0  0  0  0
M  END
