1,3
q = -1.0

 21 21  0  0  1  0  0  0  0  0999 V2000
   -1.7575   -1.7693    0.2084 S   0  0  0  0  0  1  0  0  0  0  0  0
   -4.3025   -1.3142   -0.3991 N   0  0  0  0  0  0  0  0  0  0  0  0
   -1.5600    1.1485    0.1824 C   0  0  0  0  0  3  0  0  0  0  0  0
   -1.3397    2.5269    0.3855 C   0  0  0  0  0  0  0  0  0  0  0  0
   -2.4019    3.4218    0.5837 C   0  0  0  0  0  0  0  0  0  0  0  0
   -3.7286    2.9561    0.6049 C   0  0  0  0  0  0  0  0  0  0  0  0
   -3.9846    1.6016    0.3777 C   0  0  0  0  0  0  0  0  0  0  0  0
   -2.9200    0.6958    0.1252 C   0  0  0  0  0  0  0  0  0  0  0  0
   -3.1167   -0.7476   -0.0531 C   0  0  1  0  0  3  0  0  0  0  0  0
   -4.4553   -2.7617   -0.3215 C   0  0  0  0  0  0  0  0  0  0  0  0
   -5.3347   -0.6300   -1.1729 C   0  0  0  0  0  0  0  0  0  0  0  0
   -0.3087    2.9137    0.4167 H   0  0  0  0  0  0  0  0  0  0  0  0
   -2.1920    4.4903    0.7521 H   0  0  0  0  0  0  0  0  0  0  0  0
   -4.5603    3.6463    0.8108 H   0  0  0  0  0  0  0  0  0  0  0  0
   -5.0211    1.2439    0.4447 H   0  0  0  0  0  0  0  0  0  0  0  0
   -3.9978   -3.1431    0.6113 H   0  0  0  0  0  0  0  0  0  0  0  0
   -3.9543   -3.2699   -1.1756 H   0  0  0  0  0  0  0  0  0  0  0  0
   -5.5339   -3.0097   -0.3291 H   0  0  0  0  0  0  0  0  0  0  0  0
   -4.9636    0.3401   -1.5436 H   0  0  0  0  0  0  0  0  0  0  0  0
   -6.2604   -0.4635   -0.5810 H   0  0  0  0  0  0  0  0  0  0  0  0
   -5.5966   -1.2595   -2.0491 H   0  0  0  0  0  0  0  0  0  0  0  0
  2 10  1  0  0  0  0
  2  9  1  0  0  0  0
  3  4  1  0  0  0  0
  4 12  1  0  0  0  0
  4  5  2  0  0  0  0
  5  6  1  0  0  0  0
  5 13  1  0  0  0  0
  6 14  1  0  0  0  0
  7 15  1  0  0  0  0
  7  6  2  0  0  0  0
  8  3  2  0  0  0  0
  8  7  1  0  0  0  0
  9  8  1  0  0  0  0
  9  1  1  1  0  0  0
 10 16  1  0  0  0  0
 11 20  1  0  0  0  0
 11  2  1  0  0  0  0
 17 10  1  0  0  0  0
 18 10  1  0  0  0  0
 19 11  1  0  0  0  0
 21 11  1  0  0  0  0
M  END
