1,15
q = -1.0

 37 37  0  0  1  0  0  0  0  0999 V2000
   -0.0485    1.3104   -0.5648 C   0  0  0  0  0  2  0  0  0  0  0  0
   -0.9269    2.0455   -1.6009 C   0  0  0  0  0  0  0  0  0  0  0  0
   -2.0719    2.8184   -0.9048 C   0  0  0  0  0  0  0  0  0  0  0  0
   -1.5829    1.0568   -2.5931 C   0  0  0  0  0  0  0  0  0  0  0  0
   -0.0528    3.0005   -2.4490 C   0  0  0  0  0  0  0  0  0  0  0  0
    0.7758    1.8970    0.3520 C   0  0  2  0  0  3  0  0  0  0  0  0
    0.9366    3.3799    0.6417 C   0  0  0  0  0  0  0  0  0  0  0  0
    1.7067    1.0507    1.1697 C   0  0  0  0  0  0  0  0  0  0  0  0
    1.6285    1.0303    2.5774 C   0  0  0  0  0  0  0  0  0  0  0  0
    2.5116    0.2642    3.3523 C   0  0  0  0  0  0  0  0  0  0  0  0
    3.5303   -0.4700    2.7284 C   0  0  0  0  0  0  0  0  0  0  0  0
    3.6520   -0.4302    1.3316 C   0  0  0  0  0  0  0  0  0  0  0  0
    2.7545    0.3165    0.5436 C   0  0  0  0  0  0  0  0  0  0  0  0
    2.8826    0.3192   -0.9491 C   0  0  0  0  0  0  0  0  0  0  0  0
    1.6936   -0.8482   -1.7735 S   0  0  0  0  0  0  0  0  0  0  0  0
    2.4736   -2.4319   -1.3334 C   0  0  0  0  0  0  0  0  0  0  0  0
   -2.6981    3.3389   -1.6598 H   0  0  0  0  0  0  0  0  0  0  0  0
   -2.7283    2.1223   -0.3458 H   0  0  0  0  0  0  0  0  0  0  0  0
   -1.7035    3.5783   -0.1896 H   0  0  0  0  0  0  0  0  0  0  0  0
   -2.1744    1.6191   -3.3463 H   0  0  0  0  0  0  0  0  0  0  0  0
   -0.8225    0.4566   -3.1310 H   0  0  0  0  0  0  0  0  0  0  0  0
   -2.2663    0.3508   -2.0820 H   0  0  0  0  0  0  0  0  0  0  0  0
   -0.6686    3.4932   -3.2306 H   0  0  0  0  0  0  0  0  0  0  0  0
    0.4288    3.7946   -1.8499 H   0  0  0  0  0  0  0  0  0  0  0  0
    0.7479    2.4306   -2.9640 H   0  0  0  0  0  0  0  0  0  0  0  0
    0.8988    3.5651    1.7362 H   0  0  0  0  0  0  0  0  0  0  0  0
    1.9345    3.7427    0.3089 H   0  0  0  0  0  0  0  0  0  0  0  0
    0.1682    4.0141    0.1687 H   0  0  0  0  0  0  0  0  0  0  0  0
    0.8463    1.6229    3.0785 H   0  0  0  0  0  0  0  0  0  0  0  0
    2.4074    0.2466    4.4478 H   0  0  0  0  0  0  0  0  0  0  0  0
    4.2357   -1.0654    3.3270 H   0  0  0  0  0  0  0  0  0  0  0  0
    4.4702   -0.9790    0.8384 H   0  0  0  0  0  0  0  0  0  0  0  0
    3.8928    0.0168   -1.2886 H   0  0  0  0  0  0  0  0  0  0  0  0
    2.6270    1.3025   -1.3871 H   0  0  0  0  0  0  0  0  0  0  0  0
    1.7095   -3.2070   -1.5326 H   0  0  0  0  0  0  0  0  0  0  0  0
    3.3826   -2.5654   -1.9514 H   0  0  0  0  0  0  0  0  0  0  0  0
    2.7097   -2.4439   -0.2525 H   0  0  0  0  0  0  0  0  0  0  0  0
  2  3  1  0  0  0  0
  2  1  1  0  0  0  0
  3 18  1  0  0  0  0
  3 19  1  0  0  0  0
  4 22  1  0  0  0  0
  4  2  1  0  0  0  0
  5 24  1  0  0  0  0
  5  2  1  0  0  0  0
  6  1  1  6  0  0  0
  6  7  1  0  0  0  0
  6  8  1  0  0  0  0
  7 26  1  0  0  0  0
  8  9  1  0  0  0  0
  9 29  1  0  0  0  0
  9 10  2  0  0  0  0
 10 30  1  0  0  0  0
 11 31  1  0  0  0  0
 11 10  1  0  0  0  0
 12 11  2  0  0  0  0
 13  8  2  0  0  0  0
 13 12  1  0  0  0  0
 14 13  1  0  0  0  0
 15 16  1  0  0  0  0
 15 14  1  0  0  0  0
 16 37  1  0  0  0  0
 17  3  1  0  0  0  0
 20  4  1  0  0  0  0
 21  4  1  0  0  0  0
 23  5  1  0  0  0  0
 25  5  1  0  0  0  0
 27  7  1  0  0  0  0
 28  7  1  0  0  0  0
 32 12  1  0  0  0  0
 33 14  1  0  0  0  0
 34 14  1  0  0  0  0
 35 16  1  0  0  0  0
 36 16  1  0  0  0  0
M  END
