1,2
q = -1.0

 44 45  0  0  1  0  0  0  0  0999 V2000
    1.2202   -0.3600   -1.8796 S   0  0  0  0  0  0  0  0  0  0  0  0
   -0.1184    1.1981    0.4359 C   0  0  0  0  0  2  0  0  0  0  0  0
   -0.3646    2.6622    0.0178 C   0  0  0  0  0  0  0  0  0  0  0  0
    0.9734    3.4399    0.0117 C   0  0  0  0  0  0  0  0  0  0  0  0
   -0.9405    2.7446   -1.4142 C   0  0  0  0  0  0  0  0  0  0  0  0
   -1.3787    3.3484    0.9629 C   0  0  0  0  0  0  0  0  0  0  0  0
    0.4980    0.7627    1.5686 C   0  0  2  0  0  3  0  0  0  0  0  0
    1.0198    1.5790    2.7351 C   0  0  0  0  0  0  0  0  0  0  0  0
    0.8110   -0.7029    1.7092 C   0  0  0  0  0  0  0  0  0  0  0  0
    0.0092   -1.5755    2.4727 C   0  0  0  0  0  0  0  0  0  0  0  0
    0.3549   -2.9230    2.6466 C   0  0  0  0  0  0  0  0  0  0  0  0
    1.5417   -3.4188    2.0875 C   0  0  0  0  0  0  0  0  0  0  0  0
    2.3720   -2.5591    1.3535 C   0  0  0  0  0  0  0  0  0  0  0  0
    2.0150   -1.2112    1.1503 C   0  0  0  0  0  0  0  0  0  0  0  0
    2.9252   -0.2981    0.3985 C   0  0  0  0  0  0  0  0  0  0  0  0
    4.1148    0.1442    1.0139 C   0  0  0  0  0  0  0  0  0  0  0  0
    4.9905    1.0317    0.3699 C   0  0  0  0  0  0  0  0  0  0  0  0
    4.6934    1.4951   -0.9190 C   0  0  0  0  0  0  0  0  0  0  0  0
    3.5257    1.0550   -1.5595 C   0  0  0  0  0  0  0  0  0  0  0  0
    2.6497    0.1665   -0.9110 C   0  0  0  0  0  0  0  0  0  0  0  0
    1.6494   -2.1150   -2.1514 C   0  0  0  0  0  0  0  0  0  0  0  0
    0.8127    4.4748   -0.3574 H   0  0  0  0  0  0  0  0  0  0  0  0
    1.4335    3.5069    1.0147 H   0  0  0  0  0  0  0  0  0  0  0  0
    1.7067    2.9469   -0.6560 H   0  0  0  0  0  0  0  0  0  0  0  0
   -1.0894    3.8071   -1.7007 H   0  0  0  0  0  0  0  0  0  0  0  0
   -0.2577    2.2813   -2.1539 H   0  0  0  0  0  0  0  0  0  0  0  0
   -1.9165    2.2265   -1.4940 H   0  0  0  0  0  0  0  0  0  0  0  0
   -1.5202    4.4092    0.6666 H   0  0  0  0  0  0  0  0  0  0  0  0
   -2.3680    2.8523    0.9099 H   0  0  0  0  0  0  0  0  0  0  0  0
   -1.0494    3.3337    2.0198 H   0  0  0  0  0  0  0  0  0  0  0  0
    0.6826    1.1322    3.6951 H   0  0  0  0  0  0  0  0  0  0  0  0
    2.1325    1.5580    2.7573 H   0  0  0  0  0  0  0  0  0  0  0  0
    0.7000    2.6353    2.7192 H   0  0  0  0  0  0  0  0  0  0  0  0
   -0.9110   -1.1892    2.9363 H   0  0  0  0  0  0  0  0  0  0  0  0
   -0.3030   -3.5871    3.2275 H   0  0  0  0  0  0  0  0  0  0  0  0
    1.8256   -4.4727    2.2268 H   0  0  0  0  0  0  0  0  0  0  0  0
    3.3147   -2.9326    0.9238 H   0  0  0  0  0  0  0  0  0  0  0  0
    4.3395   -0.2151    2.0299 H   0  0  0  0  0  0  0  0  0  0  0  0
    5.9070    1.3629    0.8810 H   0  0  0  0  0  0  0  0  0  0  0  0
    5.3709    2.1934   -1.4326 H   0  0  0  0  0  0  0  0  0  0  0  0
    3.2820    1.3950   -2.5773 H   0  0  0  0  0  0  0  0  0  0  0  0
    0.7747   -2.5340   -2.6849 H   0  0  0  0  0  0  0  0  0  0  0  0
    2.5749   -2.1515   -2.7559 H   0  0  0  0  0  0  0  0  0  0  0  0
    1.7743   -2.6292   -1.1817 H   0  0  0  0  0  0  0  0  0  0  0  0
  1 20  1  0  0  0  0
  3  2  1  0  0  0  0
  3  6  1  0  0  0  0
  4  3  1  0  0  0  0
  4 23  1  0  0  0  0
  5  3  1  0  0  0  0
  6 30  1  0  0  0  0
  7  2  1  6  0  0  0
  7  9  1  0  0  0  0
  7  8  1  0  0  0  0
  8 32  1  0  0  0  0
  8 31  1  0  0  0  0
  9 10  1  0  0  0  0
 10 11  2  0  0  0  0
 10 34  1  0  0  0  0
 11 35  1  0  0  0  0
 12 36  1  0  0  0  0
 12 11  1  0  0  0  0
 13 12  2  0  0  0  0
 14 13  1  0  0  0  0
 14  9  2  0  0  0  0
 15 16  1  0  0  0  0
 15 14  1  0  0  0  0
 16 38  1  0  0  0  0
 17 39  1  0  0  0  0
 17 16  2  0  0  0  0
 18 17  1  0  0  0  0
 19 18  2  0  0  0  0
 19 20  1  0  0  0  0
 20 15  2  0  0  0  0
 21  1  1  0  0  0  0
 21 44  1  0  0  0  0
 22  4  1  0  0  0  0
 24  4  1  0  0  0  0
 25  5  1  0  0  0  0
 26  5  1  0  0  0  0
 27  5  1  0  0  0  0
 28  6  1  0  0  0  0
 29  6  1  0  0  0  0
 33  8  1  0  0  0  0
 37 13  1  0  0  0  0
 40 18  1  0  0  0  0
 41 19  1  0  0  0  0
 42 21  1  0  0  0  0
 43 21  1  0  0  0  0
M  END
