1,3
q = -2.0, confidence = 0.722

  9  8  0  0  0  0  0  0  0  0999 V2000
    0.0001   -0.7286    2.1637 S   0  0  0  0  0  1  0  0  0  0  0  0
    0.0004   -2.7276   -1.8456 C   0  0  0  0  0  0  0  0  0  0  0  0
    0.0003   -2.1525   -0.6064 C   0  0  0  0  0  3  0  0  0  0  0  0
    0.0004   -2.9814    0.5967 C   0  0  0  0  0  0  0  0  0  0  0  0
    0.0004   -2.4511    1.8586 C   0  0  0  0  0  0  0  0  0  0  0  0
    0.0003   -2.1298   -2.7692 H   0  0  0  0  0  0  0  0  0  0  0  0
    0.0005   -3.8294   -1.9598 H   0  0  0  0  0  0  0  0  0  0  0  0
    0.0006   -4.0823    0.4801 H   0  0  0  0  0  0  0  0  0  0  0  0
    0.0005   -3.1039    2.7490 H   0  0  0  0  0  0  0  0  0  0  0  0
  2  3  2  0  0  0  0
  3  4  1  0  0  0  0
  4  5  2  0  0  0  0
  5  1  1  0  0  0  0
  5  9  1  0  0  0  0
  6  2  1  0  0  0  0
  7  2  1  0  0  0  0
  8  4  1  0  0  0  0
M  END
