1,2
q = -1.0, confidence = 0.008

 10  9  0  0  1  0  0  0  0  0999 V2000
   -1.3169    1.3942    0.0002 S   0  0  0  0  0  1  0  0  0  0  0  0
   -0.5976   -1.4987   -0.0001 C   0  0  0  0  0  3  0  0  0  0  0  0
   -2.4453    0.1427    0.0000 C   0  0  2  0  0  3  0  0  0  0  0  0
   -3.9190    0.4191    0.0000 C   0  0  0  0  0  0  0  0  0  0  0  0
   -0.3733   -2.6907   -0.0002 O   0  0  0  0  0  0  0  0  0  0  0  0
   -2.0162   -1.1265   -0.0001 N   0  0  0  0  0  0  0  0  0  0  0  0
   -2.6839   -1.9098   -0.0002 H   0  0  0  0  0  0  0  0  0  0  0  0
   -4.1146    1.5058    0.0002 H   0  0  0  0  0  0  0  0  0  0  0  0
   -4.3963   -0.0307   -0.8959 H   0  0  0  0  0  0  0  0  0  0  0  0
   -4.3963   -0.0310    0.8958 H   0  0  0  0  0  0  0  0  0  0  0  0
  2  6  1  0  0  0  0
  3  4  1  0  0  0  0
  3  1  1  1  0  0  0
  4  8  1  0  0  0  0
  4 10  1  0  0  0  0
  5  2  2  0  0  0  0
  6  3  1  0  0  0  0
  7  6  1  0  0  0  0
  9  4  1  0  0  0  0
M  END
