1,4
q = -1.0

 17 17  0  0  1  0  0  0  0  0999 V2000
   -0.3415    1.1694   -0.3412 S   0  0  0  0  0  1  0  0  0  0  0  0
   -0.7687   -1.3044    0.4053 N   0  0  0  0  0  0  0  0  0  0  0  0
    1.0287   -2.6259    0.7936 O   0  0  0  0  0  0  0  0  0  0  0  0
    0.6764   -1.5153    0.4531 C   0  0  0  0  0  3  0  0  0  0  0  0
   -1.3409   -0.1377    0.0650 C   0  0  2  0  0  3  0  0  0  0  0  0
   -2.8118   -0.0278    0.0233 C   0  0  0  0  0  0  0  0  0  0  0  0
   -3.4376    1.2222    0.2363 C   0  0  0  0  0  0  0  0  0  0  0  0
   -4.8316    1.3303    0.1996 C   0  0  0  0  0  0  0  0  0  0  0  0
   -5.6225    0.1976   -0.0573 C   0  0  0  0  0  0  0  0  0  0  0  0
   -5.0111   -1.0467   -0.2804 C   0  0  0  0  0  0  0  0  0  0  0  0
   -3.6165   -1.1620   -0.2389 C   0  0  0  0  0  0  0  0  0  0  0  0
   -1.3443   -2.0991    0.7128 H   0  0  0  0  0  0  0  0  0  0  0  0
   -2.8119    2.1021    0.4467 H   0  0  0  0  0  0  0  0  0  0  0  0
   -5.3066    2.3064    0.3778 H   0  0  0  0  0  0  0  0  0  0  0  0
   -6.7189    0.2854   -0.0864 H   0  0  0  0  0  0  0  0  0  0  0  0
   -5.6244   -1.9337   -0.4974 H   0  0  0  0  0  0  0  0  0  0  0  0
   -3.1497   -2.1361   -0.4514 H   0  0  0  0  0  0  0  0  0  0  0  0
  2  4  1  0  0  0  0
  2 12  1  0  0  0  0
  4  3  2  0  0  0  0
  5  1  1  6  0  0  0
  5  2  1  0  0  0  0
  6  5  1  0  0  0  0
  6  7  1  0  0  0  0
  7 13  1  0  0  0  0
  8  7  2  0  0  0  0
  8 14  1  0  0  0  0
  9  8  1  0  0  0  0
 10 11  1  0  0  0  0
 10  9  2  0  0  0  0
 11  6  2  0  0  0  0
 15  9  1  0  0  0  0
 16 10  1  0  0  0  0
 17 11  1  0  0  0  0
M  END
