1,3
q = 0.0, confidence = 0.964

 74 75  0  0  0  0  0  0  0  0999 V2000
   -2.3162   -0.3115    0.0036 P   0  0  0  0  0  0  0  0  0  0  0  0
    2.3207   -0.2118   -0.0041 P   0  0  0  0  0  0  0  0  0  0  0  0
   -0.0339    1.3185   -0.1123 B   0  0  0  0  0  0  0  0  0  0  0  0
   -0.0130    0.2668   -1.2861 H   0  0  0  0  0  0  0  0  0  0  0  0
    1.1070    2.2171   -0.1099 N   0  0  0  0  0  0  0  0  0  0  0  0
    0.6403    3.5273   -0.0134 C   0  0  0  0  0  0  0  0  0  0  0  0
    1.3241    4.7442    0.0775 C   0  0  0  0  0  0  0  0  0  0  0  0
    2.4242    4.7696    0.0729 H   0  0  0  0  0  0  0  0  0  0  0  0
    0.5717    5.9338    0.1820 C   0  0  0  0  0  0  0  0  0  0  0  0
    1.0966    6.8981    0.2554 H   0  0  0  0  0  0  0  0  0  0  0  0
   -0.8323    5.9034    0.1969 C   0  0  0  0  0  0  0  0  0  0  0  0
   -1.3968    6.8441    0.2820 H   0  0  0  0  0  0  0  0  0  0  0  0
   -1.5346    4.6824    0.1071 C   0  0  0  0  0  0  0  0  0  0  0  0
   -2.6346    4.6602    0.1254 H   0  0  0  0  0  0  0  0  0  0  0  0
   -0.8011    3.4961    0.0004 C   0  0  0  0  0  0  0  0  0  0  0  0
   -1.2127    2.1672   -0.0912 N   0  0  0  0  0  0  0  0  0  0  0  0
    2.4404    1.7020    0.0577 C   0  0  0  0  0  0  0  0  0  0  0  0
    2.8716    2.0021    1.0389 H   0  0  0  0  0  0  0  0  0  0  0  0
    3.1457    2.0603   -0.7246 H   0  0  0  0  0  0  0  0  0  0  0  0
    3.2669   -0.6206   -1.6227 C   0  0  0  0  0  0  0  0  0  0  0  0
    4.7290   -0.1514   -1.6431 C   0  0  0  0  0  0  0  0  0  0  0  0
    5.1391   -0.2805   -2.6678 H   0  0  0  0  0  0  0  0  0  0  0  0
    5.3653   -0.7476   -0.9618 H   0  0  0  0  0  0  0  0  0  0  0  0
    4.8434    0.9191   -1.3778 H   0  0  0  0  0  0  0  0  0  0  0  0
    2.4793    0.0916   -2.7420 C   0  0  0  0  0  0  0  0  0  0  0  0
    2.4508    1.1928   -2.6204 H   0  0  0  0  0  0  0  0  0  0  0  0
    1.4352   -0.2750   -2.7872 H   0  0  0  0  0  0  0  0  0  0  0  0
    2.9638   -0.1258   -3.7173 H   0  0  0  0  0  0  0  0  0  0  0  0
    3.1945   -2.1368   -1.8813 C   0  0  0  0  0  0  0  0  0  0  0  0
    2.1511   -2.5053   -1.8300 H   0  0  0  0  0  0  0  0  0  0  0  0
    3.8081   -2.7142   -1.1641 H   0  0  0  0  0  0  0  0  0  0  0  0
    3.5894   -2.3496   -2.8979 H   0  0  0  0  0  0  0  0  0  0  0  0
    3.3090   -0.7163    1.5604 C   0  0  0  0  0  0  0  0  0  0  0  0
    4.6628   -0.0092    1.7357 C   0  0  0  0  0  0  0  0  0  0  0  0
    5.0908   -0.2918    2.7216 H   0  0  0  0  0  0  0  0  0  0  0  0
    4.5723    1.0953    1.7292 H   0  0  0  0  0  0  0  0  0  0  0  0
    5.3988   -0.2984    0.9642 H   0  0  0  0  0  0  0  0  0  0  0  0
    2.3883   -0.3486    2.7427 C   0  0  0  0  0  0  0  0  0  0  0  0
    1.4269   -0.8944    2.6857 H   0  0  0  0  0  0  0  0  0  0  0  0
    2.1662    0.7372    2.7851 H   0  0  0  0  0  0  0  0  0  0  0  0
    2.8944   -0.6228    3.6928 H   0  0  0  0  0  0  0  0  0  0  0  0
    3.5077   -2.2418    1.5541 C   0  0  0  0  0  0  0  0  0  0  0  0
    4.2496   -2.5634    0.7979 H   0  0  0  0  0  0  0  0  0  0  0  0
    2.5504   -2.7677    1.3718 H   0  0  0  0  0  0  0  0  0  0  0  0
    3.8871   -2.5649    2.5470 H   0  0  0  0  0  0  0  0  0  0  0  0
   -2.5151    1.5918    0.1209 C   0  0  0  0  0  0  0  0  0  0  0  0
   -3.2713    1.9400   -0.6172 H   0  0  0  0  0  0  0  0  0  0  0  0
   -2.9111    1.8456    1.1299 H   0  0  0  0  0  0  0  0  0  0  0  0
   -3.2401   -0.7143   -1.6292 C   0  0  0  0  0  0  0  0  0  0  0  0
   -2.5221    0.1032   -2.7227 C   0  0  0  0  0  0  0  0  0  0  0  0
   -1.4517   -0.1727   -2.7891 H   0  0  0  0  0  0  0  0  0  0  0  0
   -2.5840    1.1974   -2.5588 H   0  0  0  0  0  0  0  0  0  0  0  0
   -2.9945   -0.1163   -3.7035 H   0  0  0  0  0  0  0  0  0  0  0  0
   -4.7332   -0.3559   -1.6189 C   0  0  0  0  0  0  0  0  0  0  0  0
   -5.1448   -0.4787   -2.6439 H   0  0  0  0  0  0  0  0  0  0  0  0
   -4.9232    0.6932   -1.3138 H   0  0  0  0  0  0  0  0  0  0  0  0
   -5.3149   -1.0224   -0.9539 H   0  0  0  0  0  0  0  0  0  0  0  0
   -3.0557   -2.2085   -1.9521 C   0  0  0  0  0  0  0  0  0  0  0  0
   -3.6159   -2.8603   -1.2554 H   0  0  0  0  0  0  0  0  0  0  0  0
   -1.9877   -2.5003   -1.9180 H   0  0  0  0  0  0  0  0  0  0  0  0
   -3.4423   -2.4087   -2.9744 H   0  0  0  0  0  0  0  0  0  0  0  0
   -3.2913   -0.9023    1.5454 C   0  0  0  0  0  0  0  0  0  0  0  0
   -2.3730   -0.5750    2.7411 C   0  0  0  0  0  0  0  0  0  0  0  0
   -2.8708   -0.9026    3.6787 H   0  0  0  0  0  0  0  0  0  0  0  0
   -2.1716    0.5118    2.8337 H   0  0  0  0  0  0  0  0  0  0  0  0
   -1.4022   -1.0998    2.6549 H   0  0  0  0  0  0  0  0  0  0  0  0
   -4.6551   -0.2246    1.7567 C   0  0  0  0  0  0  0  0  0  0  0  0
   -5.3857   -0.4746    0.9667 H   0  0  0  0  0  0  0  0  0  0  0  0
   -4.5772    0.8791    1.8178 H   0  0  0  0  0  0  0  0  0  0  0  0
   -5.0819   -0.5711    2.7225 H   0  0  0  0  0  0  0  0  0  0  0  0
   -3.4662   -2.4285    1.4657 C   0  0  0  0  0  0  0  0  0  0  0  0
   -2.5025   -2.9308    1.2526 H   0  0  0  0  0  0  0  0  0  0  0  0
   -4.2061   -2.7246    0.6970 H   0  0  0  0  0  0  0  0  0  0  0  0
   -3.8356   -2.8063    2.4429 H   0  0  0  0  0  0  0  0  0  0  0  0
  1 46  1  0  0  0  0
  1 62  1  0  0  0  0
  2 17  1  0  0  0  0
  2 33  1  0  0  0  0
  3  5  1  0  0  0  0
  3 16  1  0  0  0  0
  4  3  1  0  0  0  0
  5  6  1  0  0  0  0
  5 17  1  0  0  0  0
  6 15  2  0  0  0  0
  6  7  1  0  0  0  0
  7  9  2  0  0  0  0
  8  7  1  0  0  0  0
  9 11  1  0  0  0  0
  9 10  1  0  0  0  0
 11 12  1  0  0  0  0
 13 14  1  0  0  0  0
 13 11  2  0  0  0  0
 15 13  1  0  0  0  0
 16 15  1  0  0  0  0
 16 46  1  0  0  0  0
 17 18  1  0  0  0  0
 19 17  1  0  0  0  0
 20  2  1  0  0  0  0
 21 20  1  0  0  0  0
 21 24  1  0  0  0  0
 21 23  1  0  0  0  0
 22 21  1  0  0  0  0
 25 26  1  0  0  0  0
 25 20  1  0  0  0  0
 27 25  1  0  0  0  0
 28 25  1  0  0  0  0
 29 30  1  0  0  0  0
 29 20  1  0  0  0  0
 29 31  1  0  0  0  0
 32 29  1  0  0  0  0
 33 34  1  0  0  0  0
 33 38  1  0  0  0  0
 34 35  1  0  0  0  0
 36 34  1  0  0  0  0
 37 34  1  0  0  0  0
 38 40  1  0  0  0  0
 38 41  1  0  0  0  0
 39 38  1  0  0  0  0
 42 33  1  0  0  0  0
 42 45  1  0  0  0  0
 43 42  1  0  0  0  0
 44 42  1  0  0  0  0
 46 48  1  0  0  0  0
 47 46  1  0  0  0  0
 49 54  1  0  0  0  0
 49  1  1  0  0  0  0
 50 52  1  0  0  0  0
 50 49  1  0  0  0  0
 51 50  1  0  0  0  0
 53 50  1  0  0  0  0
 54 56  1  0  0  0  0
 54 57  1  0  0  0  0
 55 54  1  0  0  0  0
 58 60  1  0  0  0  0
 58 49  1  0  0  0  0
 58 59  1  0  0  0  0
 61 58  1  0  0  0  0
 62 67  1  0  0  0  0
 62 63  1  0  0  0  0
 63 65  1  0  0  0  0
 63 64  1  0  0  0  0
 66 63  1  0  0  0  0
 67 69  1  0  0  0  0
 67 70  1  0  0  0  0
 68 67  1  0  0  0  0
 71 62  1  0  0  0  0
 71 74  1  0  0  0  0
 72 71  1  0  0  0  0
 73 71  1  0  0  0  0
M  END
