1,2,3,4
q = -2.0, confidence = 0.92

 54 56  0  0  1  0  0  0  0  0999 V2000
    0.7096    0.9611   -1.3535 O   0  5  0  0  0  0  0  0  0  0  0  0
   -1.5975   -0.1343   -0.6010 O   0  0  0  0  0  1  0  0  0  0  0  0
    0.2071    0.3949    1.3467 O   0  0  0  0  0  1  0  0  0  0  0  0
    0.5981    2.7558    0.6203 O   0  0  0  0  0  1  0  0  0  0  0  0
    1.6142    2.1211    1.2470 N   0  0  0  0  0  0  0  0  0  0  0  0
    2.4410   -0.4028   -2.2466 C   0  0  0  0  0  0  0  0  0  0  0  0
    1.0707   -0.2389   -1.5976 C   0  0  0  0  0  0  0  0  0  0  0  0
    0.2842   -1.3778   -1.3218 C   0  0  0  0  0  0  0  0  0  0  0  0
   -1.0420   -1.2739   -0.8537 C   0  0  1  0  0  3  0  0  0  0  0  0
    2.3770   -0.0311    2.2978 C   0  0  0  0  0  0  0  0  0  0  0  0
    1.3565    0.8549    1.6188 C   0  0  2  0  0  3  0  0  0  0  0  0
    2.8262    2.9062    1.3401 C   0  0  0  0  0  0  0  0  0  0  0  0
    4.0063   -0.3731   -0.2026 C   0  0  0  0  0  0  0  0  0  0  0  0
    3.5903    0.1844   -1.4440 C   0  0  0  0  0  0  0  0  0  0  0  0
    4.2825    1.3047   -1.9444 C   0  0  0  0  0  0  0  0  0  0  0  0
    5.3834    1.8528   -1.2701 C   0  0  0  0  0  0  0  0  0  0  0  0
    5.8171    1.2771   -0.0673 C   0  0  0  0  0  0  0  0  0  0  0  0
    5.1257    0.1762    0.4578 C   0  0  0  0  0  0  0  0  0  0  0  0
    3.2753   -1.5253    0.4082 C   0  0  0  0  0  0  0  0  0  0  0  0
    2.4894   -1.3670    1.5801 C   0  0  0  0  0  0  0  0  0  0  0  0
    1.7337   -2.4585    2.0471 C   0  0  0  0  0  0  0  0  0  0  0  0
    1.7728   -3.7022    1.4036 C   0  0  0  0  0  0  0  0  0  0  0  0
    2.5958   -3.8770    0.2810 C   0  0  0  0  0  0  0  0  0  0  0  0
    3.3373   -2.7935   -0.2077 C   0  0  0  0  0  0  0  0  0  0  0  0
   -1.8883   -2.4718   -0.6182 C   0  0  0  0  0  0  0  0  0  0  0  0
   -3.1215   -2.3023    0.0525 C   0  0  0  0  0  0  0  0  0  0  0  0
   -3.9418   -3.3992    0.3239 C   0  0  0  0  0  0  0  0  0  0  0  0
   -3.5689   -4.7048   -0.0643 C   0  0  0  0  0  0  0  0  0  0  0  0
   -2.3366   -4.8687   -0.7313 C   0  0  0  0  0  0  0  0  0  0  0  0
   -1.5080   -3.7752   -1.0048 C   0  0  0  0  0  0  0  0  0  0  0  0
   -4.4714   -5.8782    0.2138 C   0  0  0  0  0  0  0  0  0  0  0  0
    2.6199   -1.4732   -2.4607 H   0  0  0  0  0  0  0  0  0  0  0  0
    2.3930    0.1253   -3.2211 H   0  0  0  0  0  0  0  0  0  0  0  0
    0.7209   -2.3651   -1.5040 H   0  0  0  0  0  0  0  0  0  0  0  0
    3.3578    0.4675    2.3760 H   0  0  0  0  0  0  0  0  0  0  0  0
    2.0111   -0.2091    3.3300 H   0  0  0  0  0  0  0  0  0  0  0  0
    2.5934    3.8670    1.8405 H   0  0  0  0  0  0  0  0  0  0  0  0
    3.2103    3.1061    0.3197 H   0  0  0  0  0  0  0  0  0  0  0  0
    3.5954    2.3637    1.9143 H   0  0  0  0  0  0  0  0  0  0  0  0
    3.9479    1.7502   -2.8939 H   0  0  0  0  0  0  0  0  0  0  0  0
    5.9073    2.7239   -1.6919 H   0  0  0  0  0  0  0  0  0  0  0  0
    6.6932    1.6816    0.4618 H   0  0  0  0  0  0  0  0  0  0  0  0
    5.4634   -0.2882    1.3977 H   0  0  0  0  0  0  0  0  0  0  0  0
    1.0905   -2.3195    2.9292 H   0  0  0  0  0  0  0  0  0  0  0  0
    1.1636   -4.5359    1.7834 H   0  0  0  0  0  0  0  0  0  0  0  0
    2.6579   -4.8563   -0.2174 H   0  0  0  0  0  0  0  0  0  0  0  0
    3.9829   -2.9217   -1.0903 H   0  0  0  0  0  0  0  0  0  0  0  0
   -3.4059   -1.2881    0.3675 H   0  0  0  0  0  0  0  0  0  0  0  0
   -4.8942   -3.2449    0.8556 H   0  0  0  0  0  0  0  0  0  0  0  0
   -2.0237   -5.8774   -1.0438 H   0  0  0  0  0  0  0  0  0  0  0  0
   -0.5578   -3.9429   -1.5312 H   0  0  0  0  0  0  0  0  0  0  0  0
   -5.3681   -5.8524   -0.4419 H   0  0  0  0  0  0  0  0  0  0  0  0
   -3.9581   -6.8434    0.0397 H   0  0  0  0  0  0  0  0  0  0  0  0
   -4.8416   -5.8650    1.2592 H   0  0  0  0  0  0  0  0  0  0  0  0
  4  5  1  0  0  0  0
  5 12  1  0  0  0  0
  5 11  1  0  0  0  0
  6  7  1  0  0  0  0
  6 14  1  0  0  0  0
  7  1  1  0  0  0  0
  7  8  2  0  0  0  0
  8  9  1  0  0  0  0
  9 25  1  0  0  0  0
  9  2  1  1  0  0  0
 10 35  1  0  0  0  0
 10 36  1  0  0  0  0
 11  3  1  6  0  0  0
 11 10  1  0  0  0  0
 12 37  1  0  0  0  0
 12 39  1  0  0  0  0
 13 19  1  0  0  0  0
 13 18  1  0  0  0  0
 14 13  2  0  0  0  0
 15 14  1  0  0  0  0
 15 16  2  0  0  0  0
 16 17  1  0  0  0  0
 17 18  2  0  0  0  0
 17 42  1  0  0  0  0
 18 43  1  0  0  0  0
 19 20  1  0  0  0  0
 20 21  2  0  0  0  0
 20 10  1  0  0  0  0
 21 44  1  0  0  0  0
 22 45  1  0  0  0  0
 22 21  1  0  0  0  0
 23 22  2  0  0  0  0
 24 23  1  0  0  0  0
 24 19  2  0  0  0  0
 25 26  1  0  0  0  0
 26 27  2  0  0  0  0
 26 48  1  0  0  0  0
 27 49  1  0  0  0  0
 28 31  1  0  0  0  0
 28 27  1  0  0  0  0
 29 28  2  0  0  0  0
 30 29  1  0  0  0  0
 30 25  2  0  0  0  0
 31 54  1  0  0  0  0
 32  6  1  0  0  0  0
 33  6  1  0  0  0  0
 34  8  1  0  0  0  0
 38 12  1  0  0  0  0
 40 15  1  0  0  0  0
 41 16  1  0  0  0  0
 46 23  1  0  0  0  0
 47 24  1  0  0  0  0
 50 29  1  0  0  0  0
 51 30  1  0  0  0  0
 52 31  1  0  0  0  0
 53 31  1  0  0  0  0
M  CHG  1   1  -1
M  END
