5,6,7,8
 OpenBabel05122313063D

 52 52  0  0  0  0  0  0  0  0999 V2000
   -1.0276   -1.7846    1.1202 N   0  0  0  0  0  0  0  0  0  0  0  0
    1.8699   -0.9897    1.0429 N   0  0  0  0  0  0  0  0  0  0  0  0
    1.0691    1.9106    0.9310 N   0  0  0  0  0  0  0  0  0  0  0  0
   -1.8333    1.1113    1.0131 N   0  0  0  0  0  0  0  0  0  0  0  0
   -2.0998   -0.8049   -1.2695 O   0  5  0  0  0  0  0  0  0  0  0  0
    0.7395   -2.1094   -1.2591 O   0  5  0  0  0  0  0  0  0  0  0  0
    2.0577    0.6924   -1.3705 O   0  5  0  0  0  0  0  0  0  0  0  0
   -0.7844    2.0222   -1.3988 O   0  5  0  0  0  0  0  0  0  0  0  0
    0.0522   -2.5861    1.7200 C   0  0  0  0  0  0  0  0  0  0  0  0
    1.2477   -1.7394    2.1434 C   0  0  0  0  0  0  0  0  0  0  0  0
    2.7023    0.1040    1.5733 C   0  0  0  0  0  0  0  0  0  0  0  0
    1.8770    1.3131    2.0057 C   0  0  0  0  0  0  0  0  0  0  0  0
    0.0077    2.7611    1.4963 C   0  0  0  0  0  0  0  0  0  0  0  0
   -1.1738    1.9513    2.0256 C   0  0  0  0  0  0  0  0  0  0  0  0
   -2.6436    0.0651    1.6575 C   0  0  0  0  0  0  0  0  0  0  0  0
   -1.8012   -1.1003    2.1670 C   0  0  0  0  0  0  0  0  0  0  0  0
   -2.7393   -1.8111   -0.7490 C   0  0  0  0  0  0  0  0  0  0  0  0
   -1.8978   -2.6182    0.2680 C   0  0  0  0  0  0  0  0  0  0  0  0
    1.7774   -2.7399   -0.7894 C   0  0  0  0  0  0  0  0  0  0  0  0
    2.6486   -1.8796    0.1570 C   0  0  0  0  0  0  0  0  0  0  0  0
    2.7303    1.7209   -0.9569 C   0  0  0  0  0  0  0  0  0  0  0  0
    1.9126    2.6564   -0.0283 C   0  0  0  0  0  0  0  0  0  0  0  0
   -1.7807    2.7105   -0.9364 C   0  0  0  0  0  0  0  0  0  0  0  0
   -2.6444    1.9270    0.0851 C   0  0  0  0  0  0  0  0  0  0  0  0
   -3.8876   -2.1737   -1.0099 O   0  0  0  0  0  0  0  0  0  0  0  0
    2.1155   -3.8963   -1.0459 O   0  0  0  0  0  0  0  0  0  0  0  0
    3.9019    2.0014   -1.2236 O   0  0  0  0  0  0  0  0  0  0  0  0
   -2.0869    3.8698   -1.2267 O   0  0  0  0  0  0  0  0  0  0  0  0
   -0.3142   -3.1557    2.6114 H   0  0  0  0  0  0  0  0  0  0  0  0
    0.3738   -3.3447    0.9834 H   0  0  0  0  0  0  0  0  0  0  0  0
    0.9261   -1.0122    2.9176 H   0  0  0  0  0  0  0  0  0  0  0  0
    1.9993   -2.4057    2.6387 H   0  0  0  0  0  0  0  0  0  0  0  0
    3.3103   -0.2396    2.4480 H   0  0  0  0  0  0  0  0  0  0  0  0
    3.4271    0.4042    0.7951 H   0  0  0  0  0  0  0  0  0  0  0  0
    2.5682    2.0765    2.4452 H   0  0  0  0  0  0  0  0  0  0  0  0
    1.1904    1.0130    2.8246 H   0  0  0  0  0  0  0  0  0  0  0  0
    0.4011    3.3978    2.3285 H   0  0  0  0  0  0  0  0  0  0  0  0
   -0.3366    3.4595    0.7120 H   0  0  0  0  0  0  0  0  0  0  0  0
   -1.9104    2.6566    2.4877 H   0  0  0  0  0  0  0  0  0  0  0  0
   -0.8250    1.2907    2.8465 H   0  0  0  0  0  0  0  0  0  0  0  0
   -3.3862   -0.3007    0.9251 H   0  0  0  0  0  0  0  0  0  0  0  0
   -3.2326    0.4789    2.5147 H   0  0  0  0  0  0  0  0  0  0  0  0
   -2.4741   -1.8245    2.6936 H   0  0  0  0  0  0  0  0  0  0  0  0
   -1.0902   -0.7292    2.9339 H   0  0  0  0  0  0  0  0  0  0  0  0
   -2.5733   -3.2639    0.8774 H   0  0  0  0  0  0  0  0  0  0  0  0
   -1.2336   -3.2633   -0.3426 H   0  0  0  0  0  0  0  0  0  0  0  0
    3.3287   -2.5448    0.7394 H   0  0  0  0  0  0  0  0  0  0  0  0
    3.2533   -1.2288   -0.5072 H   0  0  0  0  0  0  0  0  0  0  0  0
    2.6013    3.3598    0.4959 H   0  0  0  0  0  0  0  0  0  0  0  0
    1.2298    3.2304   -0.6873 H   0  0  0  0  0  0  0  0  0  0  0  0
   -3.2670    1.2273   -0.5084 H   0  0  0  0  0  0  0  0  0  0  0  0
   -3.3079    2.6342    0.6363 H   0  0  0  0  0  0  0  0  0  0  0  0
  1  9  1  0  0  0  0
  1 16  1  0  0  0  0
  2 11  1  0  0  0  0
  2 10  1  0  0  0  0
  3 13  1  0  0  0  0
  3 12  1  0  0  0  0
  4 15  1  0  0  0  0
  4 14  1  0  0  0  0
  5 17  1  0  0  0  0
  6 19  1  0  0  0  0
  7 21  1  0  0  0  0
  8 23  1  0  0  0  0
  9 10  1  0  0  0  0
  9 29  1  0  0  0  0
 10 32  1  0  0  0  0
 10 31  1  0  0  0  0
 11 12  1  0  0  0  0
 11 33  1  0  0  0  0
 12 35  1  0  0  0  0
 12 36  1  0  0  0  0
 13 14  1  0  0  0  0
 13 37  1  0  0  0  0
 14 39  1  0  0  0  0
 14 40  1  0  0  0  0
 15 16  1  0  0  0  0
 15 42  1  0  0  0  0
 16 43  1  0  0  0  0
 16 44  1  0  0  0  0
 17 18  1  0  0  0  0
 18 45  1  0  0  0  0
 18  1  1  0  0  0  0
 19 20  1  0  0  0  0
 20 47  1  0  0  0  0
 20  2  1  0  0  0  0
 21 22  1  0  0  0  0
 22 49  1  0  0  0  0
 22  3  1  0  0  0  0
 23 24  1  0  0  0  0
 24 52  1  0  0  0  0
 24  4  1  0  0  0  0
 25 17  2  0  0  0  0
 26 19  2  0  0  0  0
 27 21  2  0  0  0  0
 28 23  2  0  0  0  0
 30  9  1  0  0  0  0
 34 11  1  0  0  0  0
 38 13  1  0  0  0  0
 41 15  1  0  0  0  0
 46 18  1  0  0  0  0
 48 20  1  0  0  0  0
 50 22  1  0  0  0  0
 51 24  1  0  0  0  0
M  CHG  4   5  -1   6  -1   7  -1   8  -1
M  END
