1,2,3,4
 OpenBabel05122313063D

 42 43  0  0  1  0  0  0  0  0999 V2000
    1.0791   -0.7178   -1.2173 O   0  0  0  0  0  1  0  0  0  0  0  0
    0.0145    1.5381   -1.1065 O   0  0  0  0  0  1  0  0  0  0  0  0
    1.0789    0.7181    1.2171 O   0  0  0  0  0  1  0  0  0  0  0  0
    0.0142   -1.5378    1.1061 O   0  0  0  0  0  1  0  0  0  0  0  0
    1.2565    1.4632   -1.6337 N   0  0  0  0  0  0  0  0  0  0  0  0
    1.2561   -1.4630    1.6334 N   0  0  0  0  0  0  0  0  0  0  0  0
    3.1422   -0.0679   -2.2799 C   0  0  0  0  0  0  0  0  0  0  0  0
    1.7807    0.2291   -1.6895 C   0  0  2  0  0  3  0  0  0  0  0  0
    1.8517    2.7484   -1.9317 C   0  0  0  0  0  0  0  0  0  0  0  0
    3.1418    0.0680    2.2800 C   0  0  0  0  0  0  0  0  0  0  0  0
    1.7804   -0.2289    1.6894 C   0  0  2  0  0  3  0  0  0  0  0  0
    1.8510   -2.7482    1.9319 C   0  0  0  0  0  0  0  0  0  0  0  0
    4.5789   -0.7063   -0.2444 C   0  0  0  0  0  0  0  0  0  0  0  0
    3.8999   -1.0783   -1.4354 C   0  0  0  0  0  0  0  0  0  0  0  0
    3.8850   -2.4338   -1.8151 C   0  0  0  0  0  0  0  0  0  0  0  0
    4.5479   -3.4129   -1.0630 C   0  0  0  0  0  0  0  0  0  0  0  0
    5.2519   -3.0412    0.0920 C   0  0  0  0  0  0  0  0  0  0  0  0
    5.2620   -1.6983    0.4920 C   0  0  0  0  0  0  0  0  0  0  0  0
    4.5789    0.7062    0.2447 C   0  0  0  0  0  0  0  0  0  0  0  0
    3.8998    1.0782    1.4356 C   0  0  0  0  0  0  0  0  0  0  0  0
    3.8850    2.4338    1.8153 C   0  0  0  0  0  0  0  0  0  0  0  0
    4.5482    3.4128    1.0634 C   0  0  0  0  0  0  0  0  0  0  0  0
    5.2523    3.0410   -0.0915 C   0  0  0  0  0  0  0  0  0  0  0  0
    5.2624    1.6981   -0.4916 C   0  0  0  0  0  0  0  0  0  0  0  0
    3.7268    0.8574   -2.4198 H   0  0  0  0  0  0  0  0  0  0  0  0
    2.9723   -0.5023   -3.2875 H   0  0  0  0  0  0  0  0  0  0  0  0
    2.8226    2.6178   -2.4390 H   0  0  0  0  0  0  0  0  0  0  0  0
    2.0052    3.3062   -0.9853 H   0  0  0  0  0  0  0  0  0  0  0  0
    1.1632    3.3191   -2.5854 H   0  0  0  0  0  0  0  0  0  0  0  0
    2.9718    0.5024    3.2876 H   0  0  0  0  0  0  0  0  0  0  0  0
    3.7263   -0.8574    2.4201 H   0  0  0  0  0  0  0  0  0  0  0  0
    2.0041   -3.3065    0.9857 H   0  0  0  0  0  0  0  0  0  0  0  0
    1.1625   -3.3184    2.5860 H   0  0  0  0  0  0  0  0  0  0  0  0
    2.8222   -2.6177    2.4389 H   0  0  0  0  0  0  0  0  0  0  0  0
    3.3322   -2.7232   -2.7219 H   0  0  0  0  0  0  0  0  0  0  0  0
    4.5217   -4.4645   -1.3855 H   0  0  0  0  0  0  0  0  0  0  0  0
    5.7972   -3.7951    0.6798 H   0  0  0  0  0  0  0  0  0  0  0  0
    5.8234   -1.3962    1.3901 H   0  0  0  0  0  0  0  0  0  0  0  0
    3.3320    2.7232    2.7220 H   0  0  0  0  0  0  0  0  0  0  0  0
    4.5220    4.4645    1.3859 H   0  0  0  0  0  0  0  0  0  0  0  0
    5.7979    3.7948   -0.6792 H   0  0  0  0  0  0  0  0  0  0  0  0
    5.8239    1.3960   -1.3895 H   0  0  0  0  0  0  0  0  0  0  0  0
  4  6  1  0  0  0  0
  5  2  1  0  0  0  0
  6 11  1  0  0  0  0
  6 12  1  0  0  0  0
  7  8  1  0  0  0  0
  7 14  1  0  0  0  0
  8  5  1  0  0  0  0
  8  1  1  6  0  0  0
  9  5  1  0  0  0  0
  9 28  1  0  0  0  0
 10 31  1  0  0  0  0
 10 30  1  0  0  0  0
 11  3  1  1  0  0  0
 11 10  1  0  0  0  0
 12 34  1  0  0  0  0
 12 33  1  0  0  0  0
 13 19  1  0  0  0  0
 13 18  1  0  0  0  0
 14 13  2  0  0  0  0
 15 14  1  0  0  0  0
 15 16  2  0  0  0  0
 16 17  1  0  0  0  0
 17 18  2  0  0  0  0
 17 37  1  0  0  0  0
 18 38  1  0  0  0  0
 19 20  1  0  0  0  0
 20 21  2  0  0  0  0
 20 10  1  0  0  0  0
 21 39  1  0  0  0  0
 22 40  1  0  0  0  0
 22 21  1  0  0  0  0
 23 22  2  0  0  0  0
 24 23  1  0  0  0  0
 24 19  2  0  0  0  0
 25  7  1  0  0  0  0
 26  7  1  0  0  0  0
 27  9  1  0  0  0  0
 29  9  1  0  0  0  0
 32 12  1  0  0  0  0
 35 15  1  0  0  0  0
 36 16  1  0  0  0  0
 41 23  1  0  0  0  0
 42 24  1  0  0  0  0
M  END
