1,3,5,7
 OpenBabel05122313063D

 42 42  0  0  1  0  0  0  0  0999 V2000
   -1.9433   -2.2365    0.0846 O   0  5  0  0  0  0  0  0  0  0  0  0
   -1.3461   -4.3655   -0.4240 O   0  0  0  0  0  0  0  0  0  0  0  0
   -0.6853    0.2953    2.1385 O   0  5  0  0  0  0  0  0  0  0  0  0
    0.9972   -0.0725    3.6168 O   0  0  0  0  0  0  0  0  0  0  0  0
   -0.6862   -0.2952   -2.1383 O   0  5  0  0  0  0  0  0  0  0  0  0
    0.9964    0.0717   -3.6167 O   0  0  0  0  0  0  0  0  0  0  0  0
   -1.9435    2.2364   -0.0844 O   0  5  0  0  0  0  0  0  0  0  0  0
   -1.3464    4.3657    0.4229 O   0  0  0  0  0  0  0  0  0  0  0  0
    0.6437   -1.4390    0.3760 N   0  0  0  0  0  0  0  0  0  0  0  0
    0.6435    1.4390   -0.3763 N   0  0  0  0  0  0  0  0  0  0  0  0
    1.8817   -0.7646   -0.1217 C   0  0  2  0  0  0  0  0  0  0  0  0
    1.8817   -0.9242   -1.2203 H   0  0  0  0  0  0  0  0  0  0  0  0
    3.1768   -1.3887    0.4405 C   0  0  0  0  0  0  0  0  0  0  0  0
    3.1944   -1.2494    1.5425 H   0  0  0  0  0  0  0  0  0  0  0  0
    3.1637   -2.4827    0.2540 H   0  0  0  0  0  0  0  0  0  0  0  0
    4.4415   -0.7521   -0.1393 C   0  0  0  0  0  0  0  0  0  0  0  0
    5.3433   -1.2362    0.2922 H   0  0  0  0  0  0  0  0  0  0  0  0
    4.4823   -0.9238   -1.2381 H   0  0  0  0  0  0  0  0  0  0  0  0
    4.4414    0.7527    0.1390 C   0  0  0  0  0  0  0  0  0  0  0  0
    5.3432    1.2368   -0.2924 H   0  0  0  0  0  0  0  0  0  0  0  0
    4.4821    0.9244    1.2378 H   0  0  0  0  0  0  0  0  0  0  0  0
    3.1766    1.3891   -0.4407 C   0  0  0  0  0  0  0  0  0  0  0  0
    3.1943    1.2497   -1.5427 H   0  0  0  0  0  0  0  0  0  0  0  0
    3.1634    2.4831   -0.2543 H   0  0  0  0  0  0  0  0  0  0  0  0
    1.8816    0.7649    0.1215 C   0  0  1  0  0  0  0  0  0  0  0  0
    1.8816    0.9245    1.2200 H   0  0  0  0  0  0  0  0  0  0  0  0
    0.6102    1.6676   -1.8379 C   0  0  0  0  0  0  0  0  0  0  0  0
    1.5243    2.1662   -2.2211 H   0  0  0  0  0  0  0  0  0  0  0  0
   -0.2435    2.3480   -2.0357 H   0  0  0  0  0  0  0  0  0  0  0  0
    0.3249    0.3745   -2.6318 C   0  0  0  0  0  0  0  0  0  0  0  0
    0.3764    2.6983    0.3477 C   0  0  0  0  0  0  0  0  0  0  0  0
    1.0553    3.5260    0.0410 H   0  0  0  0  0  0  0  0  0  0  0  0
    0.5299    2.5092    1.4307 H   0  0  0  0  0  0  0  0  0  0  0  0
   -1.0880    3.1858    0.2068 C   0  0  0  0  0  0  0  0  0  0  0  0
    0.3766   -2.6981   -0.3481 C   0  0  0  0  0  0  0  0  0  0  0  0
    1.0556   -3.5258   -0.0416 H   0  0  0  0  0  0  0  0  0  0  0  0
    0.5300   -2.5089   -1.4311 H   0  0  0  0  0  0  0  0  0  0  0  0
   -1.0878   -3.1858   -0.2072 C   0  0  0  0  0  0  0  0  0  0  0  0
    0.6105   -1.6678    1.8376 C   0  0  0  0  0  0  0  0  0  0  0  0
    1.5246   -2.1667    2.2206 H   0  0  0  0  0  0  0  0  0  0  0  0
   -0.2433   -2.3480    2.0354 H   0  0  0  0  0  0  0  0  0  0  0  0
    0.3257   -0.3747    2.6317 C   0  0  0  0  0  0  0  0  0  0  0  0
  2 38  2  0  0  0  0
  3 42  1  0  0  0  0
  6 30  2  0  0  0  0
  7 34  1  0  0  0  0
  9 39  1  0  0  0  0
 10 25  1  0  0  0  0
 10 31  1  0  0  0  0
 11 12  1  6  0  0  0
 11 25  1  0  0  0  0
 11  9  1  0  0  0  0
 11 13  1  0  0  0  0
 13 14  1  0  0  0  0
 15 13  1  0  0  0  0
 16 19  1  0  0  0  0
 16 17  1  0  0  0  0
 16 13  1  0  0  0  0
 18 16  1  0  0  0  0
 19 21  1  0  0  0  0
 20 19  1  0  0  0  0
 22 24  1  0  0  0  0
 22 25  1  0  0  0  0
 22 19  1  0  0  0  0
 23 22  1  0  0  0  0
 25 26  1  1  0  0  0
 27 10  1  0  0  0  0
 28 27  1  0  0  0  0
 29 27  1  0  0  0  0
 30  5  1  0  0  0  0
 30 27  1  0  0  0  0
 31 33  1  0  0  0  0
 32 31  1  0  0  0  0
 34 31  1  0  0  0  0
 34  8  2  0  0  0  0
 35 38  1  0  0  0  0
 35 36  1  0  0  0  0
 35  9  1  0  0  0  0
 37 35  1  0  0  0  0
 38  1  1  0  0  0  0
 39 41  1  0  0  0  0
 39 40  1  0  0  0  0
 39 42  1  0  0  0  0
 42  4  2  0  0  0  0
M  CHG  4   1  -1   3  -1   5  -1   7  -1
M  END
