1,2,3,4
q = -3.0, confidence = 0.428

 48 49  0  0  0  0  0  0  0  0999 V2000
    1.2061   -0.9387   -0.8539 O   0  5  0  0  0  0  0  0  0  0  0  0
   -1.7073   -1.4551   -0.1775 O   0  5  0  0  0  0  0  0  0  0  0  0
    0.5508   -2.3944    1.7443 O   0  0  0  0  0  1  0  0  0  0  0  0
   -0.0226    0.2555    1.4406 N   0  0  0  0  0  0  0  0  0  0  0  0
    2.1088    0.0457   -0.6927 C   0  0  0  0  0  0  0  0  0  0  0  0
    3.3819   -0.1270   -1.3044 C   0  0  0  0  0  0  0  0  0  0  0  0
    4.3362    0.8888   -1.1547 C   0  0  0  0  0  0  0  0  0  0  0  0
    5.3239    0.7552   -1.6261 H   0  0  0  0  0  0  0  0  0  0  0  0
    4.0766    2.0654   -0.4202 C   0  0  0  0  0  0  0  0  0  0  0  0
    2.8118    2.2012    0.1781 C   0  0  0  0  0  0  0  0  0  0  0  0
    2.5844    3.1069    0.7643 H   0  0  0  0  0  0  0  0  0  0  0  0
    1.8182    1.2138    0.0538 C   0  0  0  0  0  0  0  0  0  0  0  0
    0.4559    1.4102    0.6635 C   0  0  0  0  0  0  0  0  0  0  0  0
    0.4618    2.3363    1.2910 H   0  0  0  0  0  0  0  0  0  0  0  0
   -0.2962    1.5814   -0.1380 H   0  0  0  0  0  0  0  0  0  0  0  0
   -1.4062    0.4646    1.9044 C   0  0  0  0  0  0  0  0  0  0  0  0
   -1.4582    1.3421    2.5959 H   0  0  0  0  0  0  0  0  0  0  0  0
   -1.6971   -0.4296    2.4967 H   0  0  0  0  0  0  0  0  0  0  0  0
   -2.3823    0.6492    0.7752 C   0  0  0  0  0  0  0  0  0  0  0  0
   -3.2270    1.7702    0.6988 C   0  0  0  0  0  0  0  0  0  0  0  0
   -3.1505    2.5457    1.4788 H   0  0  0  0  0  0  0  0  0  0  0  0
   -4.1554    1.9253   -0.3449 C   0  0  0  0  0  0  0  0  0  0  0  0
   -4.2167    0.9151   -1.3294 C   0  0  0  0  0  0  0  0  0  0  0  0
   -4.9328    1.0194   -2.1615 H   0  0  0  0  0  0  0  0  0  0  0  0
   -3.3976   -0.2221   -1.2945 C   0  0  0  0  0  0  0  0  0  0  0  0
   -2.4722   -0.3513   -0.2218 C   0  0  0  0  0  0  0  0  0  0  0  0
    0.8686   -0.1344    2.5339 C   0  0  0  0  0  0  0  0  0  0  0  0
    0.7613    0.5253    3.4314 H   0  0  0  0  0  0  0  0  0  0  0  0
    1.9112   -0.0325    2.1703 H   0  0  0  0  0  0  0  0  0  0  0  0
    0.6078   -1.5968    2.8961 C   0  0  0  0  0  0  0  0  0  0  0  0
    1.4177   -1.9725    3.5622 H   0  0  0  0  0  0  0  0  0  0  0  0
   -0.3449   -1.7069    3.4678 H   0  0  0  0  0  0  0  0  0  0  0  0
    3.6519   -1.3874   -2.0776 C   0  0  0  0  0  0  0  0  0  0  0  0
    2.9386   -1.4967   -2.9207 H   0  0  0  0  0  0  0  0  0  0  0  0
    3.5034   -2.2851   -1.4421 H   0  0  0  0  0  0  0  0  0  0  0  0
    4.6823   -1.4024   -2.4803 H   0  0  0  0  0  0  0  0  0  0  0  0
    5.1273    3.1396   -0.2919 C   0  0  0  0  0  0  0  0  0  0  0  0
    5.3363    3.6185   -1.2722 H   0  0  0  0  0  0  0  0  0  0  0  0
    6.0905    2.7254    0.0718 H   0  0  0  0  0  0  0  0  0  0  0  0
    4.8135    3.9372    0.4090 H   0  0  0  0  0  0  0  0  0  0  0  0
   -5.0625    3.1279   -0.4209 C   0  0  0  0  0  0  0  0  0  0  0  0
   -4.8481    3.8533    0.3876 H   0  0  0  0  0  0  0  0  0  0  0  0
   -6.1305    2.8352   -0.3356 H   0  0  0  0  0  0  0  0  0  0  0  0
   -4.9542    3.6581   -1.3901 H   0  0  0  0  0  0  0  0  0  0  0  0
   -3.4574   -1.3004   -2.3398 C   0  0  0  0  0  0  0  0  0  0  0  0
   -3.6886   -2.2845   -1.8822 H   0  0  0  0  0  0  0  0  0  0  0  0
   -2.4746   -1.4254   -2.8405 H   0  0  0  0  0  0  0  0  0  0  0  0
   -4.2205   -1.0769   -3.1091 H   0  0  0  0  0  0  0  0  0  0  0  0
  1  5  1  0  0  0  0
  3 30  1  0  0  0  0
  4 16  1  0  0  0  0
  4 27  1  0  0  0  0
  5 12  1  0  0  0  0
  6  7  1  0  0  0  0
  6  5  2  0  0  0  0
  7  9  2  0  0  0  0
  8  7  1  0  0  0  0
  9 37  1  0  0  0  0
  9 10  1  0  0  0  0
 10 11  1  0  0  0  0
 12 10  2  0  0  0  0
 12 13  1  0  0  0  0
 13 14  1  0  0  0  0
 13  4  1  0  0  0  0
 15 13  1  0  0  0  0
 16 18  1  0  0  0  0
 16 17  1  0  0  0  0
 19 16  1  0  0  0  0
 20 19  1  0  0  0  0
 20 21  1  0  0  0  0
 22 20  2  0  0  0  0
 23 25  2  0  0  0  0
 23 22  1  0  0  0  0
 24 23  1  0  0  0  0
 25 26  1  0  0  0  0
 26  2  1  0  0  0  0
 26 19  2  0  0  0  0
 27 30  1  0  0  0  0
 27 28  1  0  0  0  0
 29 27  1  0  0  0  0
 30 32  1  0  0  0  0
 30 31  1  0  0  0  0
 33 35  1  0  0  0  0
 33  6  1  0  0  0  0
 34 33  1  0  0  0  0
 36 33  1  0  0  0  0
 37 39  1  0  0  0  0
 37 40  1  0  0  0  0
 38 37  1  0  0  0  0
 41 22  1  0  0  0  0
 41 43  1  0  0  0  0
 41 42  1  0  0  0  0
 44 41  1  0  0  0  0
 45 46  1  0  0  0  0
 45 25  1  0  0  0  0
 47 45  1  0  0  0  0
 48 45  1  0  0  0  0
M  CHG  2   1  -1   2  -1
M  END
