1,2,3,4
q = -3.0, confidence = 0.418

 22 21  0  0  0  0  0  0  0  0999 V2000
    1.6381   -1.8700   -0.0227 O   0  0  0  0  0  1  0  0  0  0  0  0
    1.6550    0.8511   -1.6127 O   0  0  0  0  0  1  0  0  0  0  0  0
    1.5118    0.9429    1.4585 O   0  0  0  0  0  1  0  0  0  0  0  0
    3.5826   -0.0398    0.0461 N   0  0  0  0  0  0  0  0  0  0  0  0
    2.9387   -2.3792   -0.1328 C   0  0  0  0  0  0  0  0  0  0  0  0
    3.9341   -1.3981    0.4941 C   0  0  0  0  0  0  0  0  0  0  0  0
    2.9599    1.2500   -1.9240 C   0  0  0  0  0  0  0  0  0  0  0  0
    3.9826    0.2711   -1.3373 C   0  0  0  0  0  0  0  0  0  0  0  0
    2.7668    1.0342    2.0752 C   0  0  0  0  0  0  0  0  0  0  0  0
    3.8794    1.0237    1.0221 C   0  0  0  0  0  0  0  0  0  0  0  0
    3.1955   -2.5678   -1.2048 H   0  0  0  0  0  0  0  0  0  0  0  0
    3.0118   -3.3661    0.3815 H   0  0  0  0  0  0  0  0  0  0  0  0
    3.8174   -1.4265    1.5964 H   0  0  0  0  0  0  0  0  0  0  0  0
    4.9945   -1.6565    0.2609 H   0  0  0  0  0  0  0  0  0  0  0  0
    3.1488    2.2846   -1.5414 H   0  0  0  0  0  0  0  0  0  0  0  0
    3.0931    1.3035   -3.0305 H   0  0  0  0  0  0  0  0  0  0  0  0
    3.9470   -0.6738   -1.9159 H   0  0  0  0  0  0  0  0  0  0  0  0
    5.0269    0.6603   -1.3937 H   0  0  0  0  0  0  0  0  0  0  0  0
    2.9097    0.1937    2.7999 H   0  0  0  0  0  0  0  0  0  0  0  0
    2.8340    1.9723    2.6751 H   0  0  0  0  0  0  0  0  0  0  0  0
    3.8646    1.9900    0.4794 H   0  0  0  0  0  0  0  0  0  0  0  0
    4.8934    0.9062    1.4724 H   0  0  0  0  0  0  0  0  0  0  0  0
  3  9  1  0  0  0  0
  4  6  1  0  0  0  0
  4 10  1  0  0  0  0
  5  1  1  0  0  0  0
  5 12  1  0  0  0  0
  5  6  1  0  0  0  0
  6 13  1  0  0  0  0
  7  2  1  0  0  0  0
  7 15  1  0  0  0  0
  7  8  1  0  0  0  0
  8  4  1  0  0  0  0
  9 20  1  0  0  0  0
  9 19  1  0  0  0  0
 10 22  1  0  0  0  0
 10  9  1  0  0  0  0
 11  5  1  0  0  0  0
 14  6  1  0  0  0  0
 16  7  1  0  0  0  0
 17  8  1  0  0  0  0
 18  8  1  0  0  0  0
 21 10  1  0  0  0  0
M  END
