1,2,3,4
q = -3.0, confidence = 0.246

 79 81  0  0  0  0  0  0  0  0999 V2000
    1.3105    1.2027   -0.4852 O   0  5  0  0  0  0  0  0  0  0  0  0
    0.3858   -1.7356   -0.4845 O   0  5  0  0  0  0  0  0  0  0  0  0
   -1.6965    0.5339   -0.4847 O   0  5  0  0  0  0  0  0  0  0  0  0
    0.0009    0.0016    1.7054 N   0  0  0  0  0  0  0  0  0  0  0  0
    0.3708    1.3553    2.1664 C   0  0  0  0  0  0  0  0  0  0  0  0
    1.7659    1.7679    1.7818 C   0  0  0  0  0  0  0  0  0  0  0  0
    2.6587    2.2820    2.7348 C   0  0  0  0  0  0  0  0  0  0  0  0
    3.9396    2.6915    2.3491 C   0  0  0  0  0  0  0  0  0  0  0  0
    4.3378    2.5768    1.0076 C   0  0  0  0  0  0  0  0  0  0  0  0
    3.4865    2.0663    0.0097 C   0  0  0  0  0  0  0  0  0  0  0  0
    2.1779    1.6711    0.4263 C   0  0  0  0  0  0  0  0  0  0  0  0
    3.9408    1.9119   -1.4538 C   0  0  0  0  0  0  0  0  0  0  0  0
    5.3699    2.4470   -1.6619 C   0  0  0  0  0  0  0  0  0  0  0  0
    3.9384    0.4114   -1.8346 C   0  0  0  0  0  0  0  0  0  0  0  0
    3.0000    2.7007   -2.3959 C   0  0  0  0  0  0  0  0  0  0  0  0
    0.9894   -0.9952    2.1650 C   0  0  0  0  0  0  0  0  0  0  0  0
    0.6479   -2.4101    1.7828 C   0  0  0  0  0  0  0  0  0  0  0  0
    0.6466   -3.4391    2.7372 C   0  0  0  0  0  0  0  0  0  0  0  0
    0.3604   -4.7535    2.3532 C   0  0  0  0  0  0  0  0  0  0  0  0
    0.0620   -5.0427    1.0120 C   0  0  0  0  0  0  0  0  0  0  0  0
    0.0456   -4.0515    0.0128 C   0  0  0  0  0  0  0  0  0  0  0  0
    0.3575   -2.7201    0.4279 C   0  0  0  0  0  0  0  0  0  0  0  0
   -0.3133   -4.3699   -1.4506 C   0  0  0  0  0  0  0  0  0  0  0  0
   -0.5637   -5.8755   -1.6568 C   0  0  0  0  0  0  0  0  0  0  0  0
   -1.6111   -3.6186   -1.8348 C   0  0  0  0  0  0  0  0  0  0  0  0
    0.8417   -3.9505   -2.3914 C   0  0  0  0  0  0  0  0  0  0  0  0
   -1.3559   -0.3555    2.1672 C   0  0  0  0  0  0  0  0  0  0  0  0
   -2.4111    0.6465    1.7832 C   0  0  0  0  0  0  0  0  0  0  0  0
   -3.3013    1.1637    2.7371 C   0  0  0  0  0  0  0  0  0  0  0  0
   -4.2967    2.0681    2.3522 C   0  0  0  0  0  0  0  0  0  0  0  0
   -4.3987    2.4687    1.0104 C   0  0  0  0  0  0  0  0  0  0  0  0
   -3.5329    1.9854    0.0114 C   0  0  0  0  0  0  0  0  0  0  0  0
   -2.5350    1.0508    0.4276 C   0  0  0  0  0  0  0  0  0  0  0  0
   -3.6302    2.4530   -1.4527 C   0  0  0  0  0  0  0  0  0  0  0  0
   -4.8095    3.4219   -1.6595 C   0  0  0  0  0  0  0  0  0  0  0  0
   -2.3313    3.2014   -1.8391 C   0  0  0  0  0  0  0  0  0  0  0  0
   -3.8446    1.2415   -2.3914 C   0  0  0  0  0  0  0  0  0  0  0  0
   -0.3704    2.0625    1.7347 H   0  0  0  0  0  0  0  0  0  0  0  0
    0.2644    1.4256    3.2774 H   0  0  0  0  0  0  0  0  0  0  0  0
    2.3384    2.3558    3.7861 H   0  0  0  0  0  0  0  0  0  0  0  0
    4.6396    3.0964    3.0950 H   0  0  0  0  0  0  0  0  0  0  0  0
    5.3523    2.8950    0.7347 H   0  0  0  0  0  0  0  0  0  0  0  0
    5.4488    3.5266   -1.4213 H   0  0  0  0  0  0  0  0  0  0  0  0
    6.1160    1.8985   -1.0519 H   0  0  0  0  0  0  0  0  0  0  0  0
    5.6558    2.3212   -2.7252 H   0  0  0  0  0  0  0  0  0  0  0  0
    4.6243   -0.1619   -1.1782 H   0  0  0  0  0  0  0  0  0  0  0  0
    2.9293   -0.0332   -1.7591 H   0  0  0  0  0  0  0  0  0  0  0  0
    4.2827    0.2861   -2.8818 H   0  0  0  0  0  0  0  0  0  0  0  0
    1.9657    2.3133   -2.3610 H   0  0  0  0  0  0  0  0  0  0  0  0
    2.9836    3.7757   -2.1236 H   0  0  0  0  0  0  0  0  0  0  0  0
    3.3632    2.6190   -3.4410 H   0  0  0  0  0  0  0  0  0  0  0  0
    1.9711   -0.7076    1.7297 H   0  0  0  0  0  0  0  0  0  0  0  0
    1.1067   -0.9369    3.2755 H   0  0  0  0  0  0  0  0  0  0  0  0
    0.8713   -3.1974    3.7881 H   0  0  0  0  0  0  0  0  0  0  0  0
    0.3609   -5.5613    3.1000 H   0  0  0  0  0  0  0  0  0  0  0  0
   -0.1695   -6.0808    0.7404 H   0  0  0  0  0  0  0  0  0  0  0  0
    0.3311   -6.4831   -1.4123 H   0  0  0  0  0  0  0  0  0  0  0  0
   -1.4137   -6.2463   -1.0488 H   0  0  0  0  0  0  0  0  0  0  0  0
   -0.8122   -6.0622   -2.7205 H   0  0  0  0  0  0  0  0  0  0  0  0
   -2.4518   -3.9255   -1.1797 H   0  0  0  0  0  0  0  0  0  0  0  0
   -1.4924   -2.5222   -1.7606 H   0  0  0  0  0  0  0  0  0  0  0  0
   -1.8897   -3.8557   -2.8822 H   0  0  0  0  0  0  0  0  0  0  0  0
    1.0231   -2.8610   -2.3573 H   0  0  0  0  0  0  0  0  0  0  0  0
    1.7805   -4.4734   -2.1169 H   0  0  0  0  0  0  0  0  0  0  0  0
    0.5911   -4.2253   -3.4366 H   0  0  0  0  0  0  0  0  0  0  0  0
   -1.5982   -1.3508    1.7354 H   0  0  0  0  0  0  0  0  0  0  0  0
   -1.3629   -0.4831    3.2781 H   0  0  0  0  0  0  0  0  0  0  0  0
   -3.2036    0.8502    3.7885 H   0  0  0  0  0  0  0  0  0  0  0  0
   -4.9959    2.4731    3.0987 H   0  0  0  0  0  0  0  0  0  0  0  0
   -5.1821    3.1878    0.7380 H   0  0  0  0  0  0  0  0  0  0  0  0
   -5.7829    2.9504   -1.4144 H   0  0  0  0  0  0  0  0  0  0  0  0
   -4.7061    4.3439   -1.0523 H   0  0  0  0  0  0  0  0  0  0  0  0
   -4.8472    3.7294   -2.7235 H   0  0  0  0  0  0  0  0  0  0  0  0
   -2.1762    4.0833   -1.1847 H   0  0  0  0  0  0  0  0  0  0  0  0
   -1.4410    2.5505   -1.7657 H   0  0  0  0  0  0  0  0  0  0  0  0
   -2.3988    3.5605   -2.8866 H   0  0  0  0  0  0  0  0  0  0  0  0
   -2.9915    0.5401   -2.3570 H   0  0  0  0  0  0  0  0  0  0  0  0
   -4.7664    0.6899   -2.1154 H   0  0  0  0  0  0  0  0  0  0  0  0
   -3.9584    1.5944   -3.4371 H   0  0  0  0  0  0  0  0  0  0  0  0
  1 11  1  0  0  0  0
  2 22  1  0  0  0  0
  3 33  1  0  0  0  0
  4 16  1  0  0  0  0
  4  5  1  0  0  0  0
  4 27  1  0  0  0  0
  5 39  1  0  0  0  0
  6  5  1  0  0  0  0
  6  7  1  0  0  0  0
  7 40  1  0  0  0  0
  8  7  2  0  0  0  0
  8 41  1  0  0  0  0
  9  8  1  0  0  0  0
 10 11  1  0  0  0  0
 10  9  2  0  0  0  0
 11  6  2  0  0  0  0
 12 10  1  0  0  0  0
 13 12  1  0  0  0  0
 13 43  1  0  0  0  0
 13 44  1  0  0  0  0
 14 47  1  0  0  0  0
 14 12  1  0  0  0  0
 14 46  1  0  0  0  0
 15 49  1  0  0  0  0
 15 50  1  0  0  0  0
 15 12  1  0  0  0  0
 16 53  1  0  0  0  0
 17 16  1  0  0  0  0
 17 18  1  0  0  0  0
 18 54  1  0  0  0  0
 19 18  2  0  0  0  0
 19 55  1  0  0  0  0
 20 19  1  0  0  0  0
 21 22  1  0  0  0  0
 21 20  2  0  0  0  0
 22 17  2  0  0  0  0
 23 21  1  0  0  0  0
 24 23  1  0  0  0  0
 24 57  1  0  0  0  0
 24 58  1  0  0  0  0
 25 61  1  0  0  0  0
 25 23  1  0  0  0  0
 25 60  1  0  0  0  0
 26 63  1  0  0  0  0
 26 64  1  0  0  0  0
 26 23  1  0  0  0  0
 27 67  1  0  0  0  0
 28 27  1  0  0  0  0
 28 29  1  0  0  0  0
 29 68  1  0  0  0  0
 30 29  2  0  0  0  0
 30 69  1  0  0  0  0
 31 30  1  0  0  0  0
 32 33  1  0  0  0  0
 32 31  2  0  0  0  0
 33 28  2  0  0  0  0
 34 32  1  0  0  0  0
 35 34  1  0  0  0  0
 35 71  1  0  0  0  0
 35 72  1  0  0  0  0
 36 75  1  0  0  0  0
 36 34  1  0  0  0  0
 36 74  1  0  0  0  0
 37 77  1  0  0  0  0
 37 78  1  0  0  0  0
 37 34  1  0  0  0  0
 38  5  1  0  0  0  0
 42  9  1  0  0  0  0
 45 13  1  0  0  0  0
 48 14  1  0  0  0  0
 51 15  1  0  0  0  0
 52 16  1  0  0  0  0
 56 20  1  0  0  0  0
 59 24  1  0  0  0  0
 62 25  1  0  0  0  0
 65 26  1  0  0  0  0
 66 27  1  0  0  0  0
 70 31  1  0  0  0  0
 73 35  1  0  0  0  0
 76 36  1  0  0  0  0
 79 37  1  0  0  0  0
M  CHG  3   1  -1   2  -1   3  -1
M  END
