1,2,4,12
q = 0.0, confidence = 0.964

 40 39  0  0  1  0  0  0  0  0999 V2000
   -1.6025    1.6978    1.1376 O   0  0  0  0  0  1  0  0  0  0  0  0
   -1.1861   -1.9374    1.1528 O   0  0  0  0  0  1  0  0  0  0  0  0
    0.3205    2.0323   -1.2371 O   0  0  0  0  0  0  0  0  0  0  0  0
    1.7183   -1.7609    0.7087 O   0  0  0  0  0  1  0  0  0  0  0  0
   -2.0977   -0.1716   -0.7981 N   0  0  0  0  0  0  0  0  0  0  0  0
   -3.0197    3.2194    0.2363 N   0  0  0  0  0  0  0  0  0  0  0  0
   -2.8660    3.8566    1.0211 H   0  0  0  0  0  0  0  0  0  0  0  0
   -3.6245    3.5186   -0.5282 H   0  0  0  0  0  0  0  0  0  0  0  0
   -3.1787   -3.0167    1.2367 N   0  0  0  0  0  0  0  0  0  0  0  0
   -4.1677   -3.0631    0.9915 H   0  0  0  0  0  0  0  0  0  0  0  0
   -2.7981   -3.7194    1.8749 H   0  0  0  0  0  0  0  0  0  0  0  0
    0.7665   -0.6419   -1.7050 N   0  0  0  0  0  0  0  0  0  0  0  0
    2.3420    2.6941   -2.0461 N   0  0  0  0  0  0  0  0  0  0  0  0
    3.2974    2.4465   -2.3042 H   0  0  0  0  0  0  0  0  0  0  0  0
    2.1638    3.6570   -1.7535 H   0  0  0  0  0  0  0  0  0  0  0  0
    3.0312   -3.2086   -0.4470 N   0  0  0  0  0  0  0  0  0  0  0  0
    3.3115   -3.6298   -1.3318 H   0  0  0  0  0  0  0  0  0  0  0  0
    3.5295   -3.4750    0.4052 H   0  0  0  0  0  0  0  0  0  0  0  0
   -2.5144    1.2013   -1.0560 C   0  0  0  0  0  0  0  0  0  0  0  0
   -1.8413    1.6489   -1.8125 H   0  0  0  0  0  0  0  0  0  0  0  0
   -3.5612    1.2685   -1.4399 H   0  0  0  0  0  0  0  0  0  0  0  0
   -2.3393    2.0576    0.2065 C   0  0  1  0  0  3  0  0  0  0  0  0
   -3.0592   -0.8875    0.0337 C   0  0  0  0  0  0  0  0  0  0  0  0
   -3.9196   -1.2872   -0.5563 H   0  0  0  0  0  0  0  0  0  0  0  0
   -3.4804   -0.1836    0.7818 H   0  0  0  0  0  0  0  0  0  0  0  0
   -2.3862   -1.9995    0.8461 C   0  0  1  0  0  3  0  0  0  0  0  0
   -1.7136   -0.9358   -1.9947 C   0  0  0  0  0  0  0  0  0  0  0  0
   -2.5037   -0.8850   -2.7821 H   0  0  0  0  0  0  0  0  0  0  0  0
   -1.6502   -2.0021   -1.6940 H   0  0  0  0  0  0  0  0  0  0  0  0
   -0.3841   -0.5012   -2.6188 C   0  0  0  0  0  0  0  0  0  0  0  0
   -0.2295   -1.0907   -3.5527 H   0  0  0  0  0  0  0  0  0  0  0  0
   -0.4487    0.5581   -2.9248 H   0  0  0  0  0  0  0  0  0  0  0  0
    1.8521    0.3048   -1.9812 C   0  0  0  0  0  0  0  0  0  0  0  0
    2.2366    0.2058   -3.0258 H   0  0  0  0  0  0  0  0  0  0  0  0
    2.6893    0.0903   -1.2841 H   0  0  0  0  0  0  0  0  0  0  0  0
    1.4314    1.7571   -1.7114 C   0  0  0  0  0  0  0  0  0  0  0  0
    1.2623   -2.0161   -1.6517 C   0  0  0  0  0  0  0  0  0  0  0  0
    1.8713   -2.2729   -2.5523 H   0  0  0  0  0  0  0  0  0  0  0  0
    0.3949   -2.7087   -1.6433 H   0  0  0  0  0  0  0  0  0  0  0  0
    2.0356   -2.3001   -0.3549 C   0  0  1  0  0  3  0  0  0  0  0  0
  5 23  1  0  0  0  0
  6  7  1  0  0  0  0
  8  6  1  0  0  0  0
  9 11  1  0  0  0  0
 10  9  1  0  0  0  0
 12 37  1  0  0  0  0
 13 15  1  0  0  0  0
 13 36  1  0  0  0  0
 14 13  1  0  0  0  0
 16 40  1  0  0  0  0
 16 18  1  0  0  0  0
 17 16  1  0  0  0  0
 19  5  1  0  0  0  0
 19 22  1  0  0  0  0
 20 19  1  0  0  0  0
 21 19  1  0  0  0  0
 22  6  1  0  0  0  0
 22  1  1  6  0  0  0
 23 25  1  0  0  0  0
 23 26  1  0  0  0  0
 24 23  1  0  0  0  0
 26  2  1  1  0  0  0
 26  9  1  0  0  0  0
 27 29  1  0  0  0  0
 27  5  1  0  0  0  0
 28 27  1  0  0  0  0
 30 27  1  0  0  0  0
 30 12  1  0  0  0  0
 31 30  1  0  0  0  0
 32 30  1  0  0  0  0
 33 36  1  0  0  0  0
 33 12  1  0  0  0  0
 33 35  1  0  0  0  0
 34 33  1  0  0  0  0
 36  3  2  0  0  0  0
 37 39  1  0  0  0  0
 37 40  1  0  0  0  0
 38 37  1  0  0  0  0
 40  4  1  1  0  0  0
M  END
