2,4,6,14
q = -1.0

 19 18  0  0  1  0  0  0  0  0999 V2000
    2.4490    1.8441    1.8035 O   0  5  0  0  0  0  0  0  0  0  0  0
    0.5328    0.6867    1.5184 O   0  0  0  0  0  0  0  0  0  0  0  0
    3.0329   -2.1620   -0.8998 O   0  5  0  0  0  0  0  0  0  0  0  0
    1.0612   -1.4867   -0.1070 O   0  0  0  0  0  0  0  0  0  0  0  0
   -2.8778    2.6965   -0.5052 O   0  5  0  0  0  0  0  0  0  0  0  0
   -1.9526    0.8005    0.2878 O   0  0  0  0  0  0  0  0  0  0  0  0
    1.7337    1.3174   -0.4512 C   0  0  1  0  0  0  0  0  0  0  0  0
    2.1461    2.3003   -0.7666 H   0  0  0  0  0  0  0  0  0  0  0  0
    1.6043    1.3195    1.0949 C   0  0  0  0  0  0  0  0  0  0  0  0
    2.6667    0.2001   -0.9144 C   0  0  0  0  0  0  0  0  0  0  0  0
    2.8530    0.2715   -2.0096 H   0  0  0  0  0  0  0  0  0  0  0  0
    3.6547    0.3571   -0.4379 H   0  0  0  0  0  0  0  0  0  0  0  0
    2.2535   -1.2589   -0.6215 C   0  0  0  0  0  0  0  0  0  0  0  0
    0.3633    1.1318   -1.0122 N   0  0  0  0  0  0  0  0  0  0  0  0
    0.4344    0.8421   -1.9982 H   0  0  0  0  0  0  0  0  0  0  0  0
   -0.5249    2.3209   -0.8947 C   0  0  0  0  0  0  0  0  0  0  0  0
   -0.6179    2.8581   -1.8588 H   0  0  0  0  0  0  0  0  0  0  0  0
   -0.0778    3.0264   -0.1653 H   0  0  0  0  0  0  0  0  0  0  0  0
   -1.9252    1.9476   -0.3555 C   0  0  0  0  0  0  0  0  0  0  0  0
  3 13  1  0  0  0  0
  5 19  1  0  0  0  0
  7  8  1  6  0  0  0
  7  9  1  0  0  0  0
  9  2  2  0  0  0  0
  9  1  1  0  0  0  0
 10 13  1  0  0  0  0
 10  7  1  0  0  0  0
 10 12  1  0  0  0  0
 11 10  1  0  0  0  0
 13  4  2  0  0  0  0
 14 16  1  0  0  0  0
 14  7  1  0  0  0  0
 15 14  1  0  0  0  0
 16 19  1  0  0  0  0
 16 18  1  0  0  0  0
 17 16  1  0  0  0  0
 19  6  2  0  0  0  0
M  CHG  3   1  -1   3  -1   5  -1
M  END
