1,2,3,34
q = -3.0

 34 33  0  0  0  0  0  0  0  0999 V2000
    1.3706    1.3682   -1.0999 O   0  0  0  0  0  1  0  0  0  0  0  0
    0.9161   -0.4627    1.3476 O   0  0  0  0  0  1  0  0  0  0  0  0
    0.9993   -1.6386   -1.5631 O   0  0  0  0  0  1  0  0  0  0  0  0
    2.6583    1.8825   -0.8008 C   0  0  0  0  0  0  0  0  0  0  0  0
    2.6093    2.5849    0.5667 C   0  0  0  0  0  0  0  0  0  0  0  0
    1.9428    3.4674    0.5012 H   0  0  0  0  0  0  0  0  0  0  0  0
    3.6135    2.9290    0.8874 H   0  0  0  0  0  0  0  0  0  0  0  0
    2.1871    1.9147    1.3397 H   0  0  0  0  0  0  0  0  0  0  0  0
    3.0518    2.8843   -1.8947 C   0  0  0  0  0  0  0  0  0  0  0  0
    3.0085    2.4013   -2.8911 H   0  0  0  0  0  0  0  0  0  0  0  0
    4.0763    3.2768   -1.7316 H   0  0  0  0  0  0  0  0  0  0  0  0
    2.3460    3.7374   -1.8946 H   0  0  0  0  0  0  0  0  0  0  0  0
    3.6340    0.6722   -0.8445 C   0  0  0  0  0  0  0  0  0  0  0  0
    3.8130    0.4436   -1.9140 H   0  0  0  0  0  0  0  0  0  0  0  0
    4.6225    0.9238   -0.3955 H   0  0  0  0  0  0  0  0  0  0  0  0
    2.0018   -1.1318    1.9675 C   0  0  0  0  0  0  0  0  0  0  0  0
    2.0877   -0.6816    3.4320 C   0  0  0  0  0  0  0  0  0  0  0  0
    2.1930    0.4198    3.4936 H   0  0  0  0  0  0  0  0  0  0  0  0
    2.9523   -1.1496    3.9457 H   0  0  0  0  0  0  0  0  0  0  0  0
    1.1634   -0.9697    3.9691 H   0  0  0  0  0  0  0  0  0  0  0  0
    1.7549   -2.6492    1.8950 C   0  0  0  0  0  0  0  0  0  0  0  0
    0.8691   -2.9088    2.5073 H   0  0  0  0  0  0  0  0  0  0  0  0
    2.6232   -3.2243    2.2761 H   0  0  0  0  0  0  0  0  0  0  0  0
    1.5356   -2.9639    0.8563 H   0  0  0  0  0  0  0  0  0  0  0  0
    3.2925   -0.6818    1.2154 C   0  0  0  0  0  0  0  0  0  0  0  0
    3.5855    0.3083    1.6103 H   0  0  0  0  0  0  0  0  0  0  0  0
    4.1405   -1.3744    1.4208 H   0  0  0  0  0  0  0  0  0  0  0  0
    2.2621   -1.8860   -2.1191 C   0  0  0  0  0  0  0  0  0  0  0  0
    2.4765   -1.1660   -2.9470 H   0  0  0  0  0  0  0  0  0  0  0  0
    2.3017   -2.9062   -2.5676 H   0  0  0  0  0  0  0  0  0  0  0  0
    3.3177   -1.7631   -1.0147 C   0  0  0  0  0  0  0  0  0  0  0  0
    3.2239   -2.6295   -0.3341 H   0  0  0  0  0  0  0  0  0  0  0  0
    4.3553   -1.7759   -1.4241 H   0  0  0  0  0  0  0  0  0  0  0  0
    3.0518   -0.5375   -0.2309 N   0  0  0  0  0  0  0  0  0  0  0  0
  1  4  1  0  0  0  0
  2 16  1  0  0  0  0
  4  5  1  0  0  0  0
  5  7  1  0  0  0  0
  5  8  1  0  0  0  0
  6  5  1  0  0  0  0
  9 12  1  0  0  0  0
  9 11  1  0  0  0  0
  9  4  1  0  0  0  0
 10  9  1  0  0  0  0
 13  4  1  0  0  0  0
 13 15  1  0  0  0  0
 13 34  1  0  0  0  0
 14 13  1  0  0  0  0
 16 17  1  0  0  0  0
 17 18  1  0  0  0  0
 17 19  1  0  0  0  0
 17 20  1  0  0  0  0
 21 16  1  0  0  0  0
 21 23  1  0  0  0  0
 21 22  1  0  0  0  0
 24 21  1  0  0  0  0
 25 27  1  0  0  0  0
 25 26  1  0  0  0  0
 25 16  1  0  0  0  0
 28  3  1  0  0  0  0
 28 31  1  0  0  0  0
 29 28  1  0  0  0  0
 30 28  1  0  0  0  0
 31 32  1  0  0  0  0
 31 34  1  0  0  0  0
 33 31  1  0  0  0  0
 34 25  1  0  0  0  0
M  END
