1,2,9,16
q = -3.0, confidence = 0.408

 28 27  0  0  0  0  0  0  0  0999 V2000
   -3.1131   -0.7979    0.3504 N   0  0  0  0  0  0  0  0  0  0  0  0
   -1.1275   -1.9654   -1.0478 O   0  0  0  0  0  1  0  0  0  0  0  0
   -2.4174   -2.4127   -1.3575 C   0  0  0  0  0  0  0  0  0  0  0  0
   -2.4081   -3.4986   -1.6110 H   0  0  0  0  0  0  0  0  0  0  0  0
   -2.8159   -1.8806   -2.2564 H   0  0  0  0  0  0  0  0  0  0  0  0
   -3.3219   -2.1737   -0.1452 C   0  0  0  0  0  0  0  0  0  0  0  0
   -4.3958   -2.3795   -0.3679 H   0  0  0  0  0  0  0  0  0  0  0  0
   -3.0097   -2.8687    0.6603 H   0  0  0  0  0  0  0  0  0  0  0  0
   -0.8328   -0.5085    1.6862 O   0  0  0  0  0  1  0  0  0  0  0  0
   -1.8632   -1.0969    2.4283 C   0  0  0  0  0  0  0  0  0  0  0  0
   -1.8191   -0.7708    3.4935 H   0  0  0  0  0  0  0  0  0  0  0  0
   -1.7536   -2.2093    2.4341 H   0  0  0  0  0  0  0  0  0  0  0  0
   -3.2123   -0.6906    1.8175 C   0  0  0  0  0  0  0  0  0  0  0  0
   -4.0534   -1.3004    2.2238 H   0  0  0  0  0  0  0  0  0  0  0  0
   -3.4211    0.3650    2.0704 H   0  0  0  0  0  0  0  0  0  0  0  0
   -1.6571    1.0374   -0.9240 O   0  0  0  0  0  1  0  0  0  0  0  0
   -2.9708    1.4960   -0.6610 C   0  0  0  0  0  0  0  0  0  0  0  0
   -3.4960    2.2258   -1.9052 C   0  0  0  0  0  0  0  0  0  0  0  0
   -2.8691    3.1144   -2.1132 H   0  0  0  0  0  0  0  0  0  0  0  0
   -4.5438    2.5611   -1.7630 H   0  0  0  0  0  0  0  0  0  0  0  0
   -3.4513    1.5581   -2.7883 H   0  0  0  0  0  0  0  0  0  0  0  0
   -2.9231    2.4640    0.5344 C   0  0  0  0  0  0  0  0  0  0  0  0
   -2.4072    2.0033    1.3984 H   0  0  0  0  0  0  0  0  0  0  0  0
   -3.9378    2.7866    0.8443 H   0  0  0  0  0  0  0  0  0  0  0  0
   -2.3415    3.3638    0.2528 H   0  0  0  0  0  0  0  0  0  0  0  0
   -3.8450    0.2304   -0.4087 C   0  0  0  0  0  0  0  0  0  0  0  0
   -4.8141    0.4891    0.0769 H   0  0  0  0  0  0  0  0  0  0  0  0
   -4.0858   -0.2012   -1.4006 H   0  0  0  0  0  0  0  0  0  0  0  0
  1 13  1  0  0  0  0
  3  2  1  0  0  0  0
  3  6  1  0  0  0  0
  4  3  1  0  0  0  0
  5  3  1  0  0  0  0
  6  1  1  0  0  0  0
  6  8  1  0  0  0  0
  7  6  1  0  0  0  0
  9 10  1  0  0  0  0
 10 12  1  0  0  0  0
 10 11  1  0  0  0  0
 13 15  1  0  0  0  0
 13 14  1  0  0  0  0
 13 10  1  0  0  0  0
 16 17  1  0  0  0  0
 17 26  1  0  0  0  0
 17 22  1  0  0  0  0
 18 20  1  0  0  0  0
 18 17  1  0  0  0  0
 19 18  1  0  0  0  0
 21 18  1  0  0  0  0
 22 24  1  0  0  0  0
 22 23  1  0  0  0  0
 25 22  1  0  0  0  0
 26 27  1  0  0  0  0
 26  1  1  0  0  0  0
 28 26  1  0  0  0  0
M  END
