2,3,4,7
q = -1.0

 28 28  0  0  0  0  0  0  0  0999 V2000
    0.5314    1.1994    3.0010 O   0  5  0  0  0  0  0  0  0  0  0  0
   -2.8241    0.2978    0.3367 O   0  5  0  0  0  0  0  0  0  0  0  0
   -0.5285   -0.3294    1.7175 O   0  0  0  0  0  0  0  0  0  0  0  0
    0.5249   -1.6017   -0.3626 O   0  5  0  0  0  0  0  0  0  0  0  0
   -3.8892    2.2072   -0.2137 O   0  0  0  0  0  0  0  0  0  0  0  0
    5.4218    1.0086   -0.2837 O   0  0  0  0  0  0  0  0  0  0  0  0
   -0.4728    1.2218   -0.5073 N   0  0  0  0  0  0  0  0  0  0  0  0
    4.2207    0.3394   -0.2857 C   0  0  0  0  0  0  0  0  0  0  0  0
    4.0754   -0.9647    0.2214 C   0  0  0  0  0  0  0  0  0  0  0  0
    4.9488   -1.4864    0.6503 H   0  0  0  0  0  0  0  0  0  0  0  0
    2.8261   -1.5948    0.2016 C   0  0  0  0  0  0  0  0  0  0  0  0
    2.6950   -2.6072    0.6095 H   0  0  0  0  0  0  0  0  0  0  0  0
    0.6522    1.0878   -1.4555 C   0  0  0  0  0  0  0  0  0  0  0  0
    0.2565    0.5175   -2.3226 H   0  0  0  0  0  0  0  0  0  0  0  0
    0.9794    2.0912   -1.8216 H   0  0  0  0  0  0  0  0  0  0  0  0
    3.0949    0.9932   -0.8148 C   0  0  0  0  0  0  0  0  0  0  0  0
    3.2143    2.0174   -1.2011 H   0  0  0  0  0  0  0  0  0  0  0  0
   -1.6658    1.8398   -1.0933 C   0  0  0  0  0  0  0  0  0  0  0  0
   -1.8166    1.4123   -2.1060 H   0  0  0  0  0  0  0  0  0  0  0  0
   -1.5901    2.9479   -1.1774 H   0  0  0  0  0  0  0  0  0  0  0  0
    1.6864   -0.9527   -0.3377 C   0  0  0  0  0  0  0  0  0  0  0  0
    1.8375    0.3695   -0.8564 C   0  0  0  0  0  0  0  0  0  0  0  0
   -2.9153    1.4702   -0.2677 C   0  0  0  0  0  0  0  0  0  0  0  0
   -0.0937    1.8378    0.7771 C   0  0  0  0  0  0  0  0  0  0  0  0
   -0.8653    2.5784    1.0730 H   0  0  0  0  0  0  0  0  0  0  0  0
    0.8670    2.3879    0.7040 H   0  0  0  0  0  0  0  0  0  0  0  0
    0.0122    0.8352    1.9508 C   0  0  0  0  0  0  0  0  0  0  0  0
    6.0693    0.4341    0.1631 H   0  0  0  0  0  0  0  0  0  0  0  0
  3 27  2  0  0  0  0
  4 21  1  0  0  0  0
  6 28  1  0  0  0  0
  7 24  1  0  0  0  0
  8  6  1  0  0  0  0
  8  9  1  0  0  0  0
  9 10  1  0  0  0  0
 11  9  2  0  0  0  0
 11 12  1  0  0  0  0
 13 22  1  0  0  0  0
 13  7  1  0  0  0  0
 14 13  1  0  0  0  0
 15 13  1  0  0  0  0
 16  8  2  0  0  0  0
 17 16  1  0  0  0  0
 18  7  1  0  0  0  0
 18 23  1  0  0  0  0
 19 18  1  0  0  0  0
 20 18  1  0  0  0  0
 21 11  1  0  0  0  0
 22 16  1  0  0  0  0
 22 21  2  0  0  0  0
 23  5  2  0  0  0  0
 23  2  1  0  0  0  0
 24 25  1  0  0  0  0
 24 27  1  0  0  0  0
 26 24  1  0  0  0  0
 27  1  1  0  0  0  0
M  CHG  3   1  -1   2  -1   4  -1
M  END
