20,22,24,25
q = -2.0, confidence = 0.804

 27 27  0  0  1  0  0  0  0  0999 V2000
   -2.5040    0.3226   -1.3751 C   0  0  0  0  0  0  0  0  0  0  0  0
   -1.4650    1.4286   -1.0603 C   0  0  1  0  0  0  0  0  0  0  0  0
   -1.4126    2.1207   -1.9287 H   0  0  0  0  0  0  0  0  0  0  0  0
    0.9360    1.4355   -0.9736 C   0  0  0  0  0  3  0  0  0  0  0  0
    0.9231    2.4223   -1.4884 H   0  0  0  0  0  0  0  0  0  0  0  0
    2.2177    0.9615   -0.5129 C   0  0  0  0  0  0  0  0  0  0  0  0
    3.3988    1.6379   -0.9164 C   0  0  0  0  0  0  0  0  0  0  0  0
    3.3105    2.4585   -1.6463 H   0  0  0  0  0  0  0  0  0  0  0  0
    4.6448    1.2779   -0.4115 C   0  0  0  0  0  0  0  0  0  0  0  0
    5.5534    1.7995   -0.7438 H   0  0  0  0  0  0  0  0  0  0  0  0
    4.7255    0.2384    0.5417 C   0  0  0  0  0  0  0  0  0  0  0  0
    5.7055   -0.0505    0.9517 H   0  0  0  0  0  0  0  0  0  0  0  0
    3.5813   -0.4314    0.9766 C   0  0  0  0  0  0  0  0  0  0  0  0
    3.6313   -1.2386    1.7208 H   0  0  0  0  0  0  0  0  0  0  0  0
    2.3084   -0.1029    0.4490 C   0  0  0  0  0  0  0  0  0  0  0  0
   -1.9676    2.2219    0.1613 C   0  0  0  0  0  0  0  0  0  0  0  0
   -1.2993    3.0903    0.3514 H   0  0  0  0  0  0  0  0  0  0  0  0
   -2.9732    2.6262   -0.0773 H   0  0  0  0  0  0  0  0  0  0  0  0
   -2.0276    1.3849    1.4401 C   0  0  2  0  0  3  0  0  0  0  0  0
   -0.1857    0.8109   -0.7769 N   0  0  0  0  0  2  0  0  0  0  0  0
   -2.6795    1.9574    2.4798 N   0  0  0  0  0  0  0  0  0  0  0  0
   -2.1235   -0.8778   -0.9728 O   0  5  0  0  0  0  0  0  0  0  0  0
   -3.5768    0.5952   -1.8794 O   0  0  0  0  0  0  0  0  0  0  0  0
    1.2478   -0.7597    0.8960 O   0  5  0  0  0  0  0  0  0  0  0  0
   -1.4967    0.2702    1.5607 O   0  0  0  0  0  1  0  0  0  0  0  0
   -3.1755    2.8425    2.3901 H   0  0  0  0  0  0  0  0  0  0  0  0
   -2.7498    1.4332    3.3539 H   0  0  0  0  0  0  0  0  0  0  0  0
  1  2  1  0  0  0  0
  1 22  1  0  0  0  0
  2  3  1  6  0  0  0
  2 20  1  0  0  0  0
  2 16  1  0  0  0  0
  4 20  1  0  0  0  0
  4  6  1  0  0  0  0
  5  4  1  0  0  0  0
  6 15  1  0  0  0  0
  7  6  2  0  0  0  0
  7  9  1  0  0  0  0
  8  7  1  0  0  0  0
  9 11  2  0  0  0  0
 10  9  1  0  0  0  0
 11 12  1  0  0  0  0
 11 13  1  0  0  0  0
 13 14  1  0  0  0  0
 15 24  1  0  0  0  0
 15 13  2  0  0  0  0
 16 17  1  0  0  0  0
 16 19  1  0  0  0  0
 18 16  1  0  0  0  0
 19 25  1  1  0  0  0
 19 21  1  0  0  0  0
 21 27  1  0  0  0  0
 23  1  2  0  0  0  0
 26 21  1  0  0  0  0
M  CHG  2  22  -1  24  -1
M  END
