3,4,5,6
q = -3.0, confidence = 0.414

 42 43  0  0  0  0  0  0  0  0999 V2000
   -4.9286    2.9920   -0.4580 F   0  0  0  0  0  0  0  0  0  0  0  0
    4.9989    2.9991   -0.3242 F   0  0  0  0  0  0  0  0  0  0  0  0
    0.5483   -2.3500    1.7683 O   0  0  0  0  0  1  0  0  0  0  0  0
   -1.7091   -1.4300   -0.1562 O   0  5  0  0  0  0  0  0  0  0  0  0
    1.2026   -0.9158   -0.8399 O   0  5  0  0  0  0  0  0  0  0  0  0
   -0.0223    0.3002    1.4416 N   0  0  0  0  0  0  0  0  0  0  0  0
    0.5990   -1.5432    2.9141 C   0  0  0  0  0  0  0  0  0  0  0  0
    1.4041   -1.9144    3.5881 H   0  0  0  0  0  0  0  0  0  0  0  0
   -0.3573   -1.6480    3.4808 H   0  0  0  0  0  0  0  0  0  0  0  0
    0.8641   -0.0841    2.5418 C   0  0  0  0  0  0  0  0  0  0  0  0
    0.7556    0.5827    3.4336 H   0  0  0  0  0  0  0  0  0  0  0  0
    1.9083    0.0119    2.1817 H   0  0  0  0  0  0  0  0  0  0  0  0
   -2.4710   -0.3257   -0.2197 C   0  0  0  0  0  0  0  0  0  0  0  0
   -2.3791    0.6897    0.7651 C   0  0  0  0  0  0  0  0  0  0  0  0
   -3.2187    1.8137    0.6808 C   0  0  0  0  0  0  0  0  0  0  0  0
   -3.1694    2.6166    1.4311 H   0  0  0  0  0  0  0  0  0  0  0  0
   -4.1264    1.9115   -0.3770 C   0  0  0  0  0  0  0  0  0  0  0  0
   -4.2194    0.9177   -1.3598 C   0  0  0  0  0  0  0  0  0  0  0  0
   -4.9450    1.0407   -2.1773 H   0  0  0  0  0  0  0  0  0  0  0  0
   -3.3949   -0.2162   -1.2973 C   0  0  0  0  0  0  0  0  0  0  0  0
   -1.4058    0.5179    1.8995 C   0  0  0  0  0  0  0  0  0  0  0  0
   -1.4592    1.4029    2.5807 H   0  0  0  0  0  0  0  0  0  0  0  0
   -1.7018   -0.3692    2.4998 H   0  0  0  0  0  0  0  0  0  0  0  0
   -3.4531   -1.3131   -2.3222 C   0  0  0  0  0  0  0  0  0  0  0  0
   -3.6796   -2.2881   -1.8438 H   0  0  0  0  0  0  0  0  0  0  0  0
   -2.4695   -1.4434   -2.8196 H   0  0  0  0  0  0  0  0  0  0  0  0
   -4.2172   -1.1073   -3.0948 H   0  0  0  0  0  0  0  0  0  0  0  0
    2.1114    0.0635   -0.6881 C   0  0  0  0  0  0  0  0  0  0  0  0
    1.8241    1.2402    0.0506 C   0  0  0  0  0  0  0  0  0  0  0  0
    2.8145    2.2309    0.1691 C   0  0  0  0  0  0  0  0  0  0  0  0
    2.6256    3.1538    0.7370 H   0  0  0  0  0  0  0  0  0  0  0  0
    4.0564    2.0433   -0.4438 C   0  0  0  0  0  0  0  0  0  0  0  0
    4.3489    0.8837   -1.1720 C   0  0  0  0  0  0  0  0  0  0  0  0
    5.3420    0.7752   -1.6320 H   0  0  0  0  0  0  0  0  0  0  0  0
    3.3814   -0.1241   -1.3039 C   0  0  0  0  0  0  0  0  0  0  0  0
    0.4617    1.4473    0.6579 C   0  0  0  0  0  0  0  0  0  0  0  0
    0.4705    2.3784    1.2773 H   0  0  0  0  0  0  0  0  0  0  0  0
   -0.2852    1.6156   -0.1491 H   0  0  0  0  0  0  0  0  0  0  0  0
    3.6387   -1.3917   -2.0683 C   0  0  0  0  0  0  0  0  0  0  0  0
    2.9228   -1.4973   -2.9096 H   0  0  0  0  0  0  0  0  0  0  0  0
    3.4789   -2.2820   -1.4256 H   0  0  0  0  0  0  0  0  0  0  0  0
    4.6682   -1.4211   -2.4712 H   0  0  0  0  0  0  0  0  0  0  0  0
  1 17  1  0  0  0  0
  3  7  1  0  0  0  0
  5 28  1  0  0  0  0
  6 21  1  0  0  0  0
  6 10  1  0  0  0  0
  7  9  1  0  0  0  0
  7  8  1  0  0  0  0
 10  7  1  0  0  0  0
 10 11  1  0  0  0  0
 12 10  1  0  0  0  0
 13  4  1  0  0  0  0
 13 14  1  0  0  0  0
 14 21  1  0  0  0  0
 15 14  2  0  0  0  0
 15 16  1  0  0  0  0
 17 15  1  0  0  0  0
 18 20  1  0  0  0  0
 18 17  2  0  0  0  0
 19 18  1  0  0  0  0
 20 13  2  0  0  0  0
 21 23  1  0  0  0  0
 21 22  1  0  0  0  0
 24 25  1  0  0  0  0
 24 20  1  0  0  0  0
 26 24  1  0  0  0  0
 27 24  1  0  0  0  0
 28 29  1  0  0  0  0
 29 30  2  0  0  0  0
 29 36  1  0  0  0  0
 30 31  1  0  0  0  0
 32  2  1  0  0  0  0
 32 30  1  0  0  0  0
 33 32  2  0  0  0  0
 34 33  1  0  0  0  0
 35 33  1  0  0  0  0
 35 28  2  0  0  0  0
 36 37  1  0  0  0  0
 36  6  1  0  0  0  0
 38 36  1  0  0  0  0
 39 41  1  0  0  0  0
 39 35  1  0  0  0  0
 40 39  1  0  0  0  0
 42 39  1  0  0  0  0
M  CHG  2   4  -1   5  -1
M  END
