1,2,3,6
q = -3.0, confidence = 0.394

 46 47  0  0  1  0  0  0  0  0999 V2000
   -1.3735   -0.2398   -1.0986 O   0  0  0  0  0  1  0  0  0  0  0  0
    1.6154    0.3052   -1.0406 O   0  0  0  0  0  1  0  0  0  0  0  0
   -0.3359    2.5851   -0.6117 O   0  0  0  0  0  1  0  0  0  0  0  0
    1.3263    4.3994    0.6507 O   0  0  0  0  0  0  0  0  0  0  0  0
    1.3795    4.0671   -0.2692 H   0  0  0  0  0  0  0  0  0  0  0  0
   -0.0093    0.5287    1.0959 N   0  0  0  0  0  0  0  0  0  0  0  0
   -3.1214   -1.3929    0.1177 C   0  0  0  0  0  0  0  0  0  0  0  0
   -4.0888   -0.7137   -0.6439 C   0  0  0  0  0  0  0  0  0  0  0  0
   -3.7606    0.0872   -1.3223 H   0  0  0  0  0  0  0  0  0  0  0  0
   -5.4415   -1.0752   -0.5507 C   0  0  0  0  0  0  0  0  0  0  0  0
   -6.1910   -0.5436   -1.1568 H   0  0  0  0  0  0  0  0  0  0  0  0
   -5.8395   -2.1136    0.3061 C   0  0  0  0  0  0  0  0  0  0  0  0
   -6.9006   -2.3972    0.3765 H   0  0  0  0  0  0  0  0  0  0  0  0
   -4.8762   -2.7971    1.0658 C   0  0  0  0  0  0  0  0  0  0  0  0
   -5.1793   -3.6196    1.7315 H   0  0  0  0  0  0  0  0  0  0  0  0
   -3.5232   -2.4405    0.9685 C   0  0  0  0  0  0  0  0  0  0  0  0
   -2.7680   -2.9900    1.5543 H   0  0  0  0  0  0  0  0  0  0  0  0
   -1.6644   -0.9676    0.0700 C   0  0  2  0  0  0  0  0  0  0  0  0
   -1.0351   -1.8912    0.0738 H   0  0  0  0  0  0  0  0  0  0  0  0
   -1.3056   -0.1102    1.3054 C   0  0  0  0  0  0  0  0  0  0  0  0
   -2.0743    0.6832    1.3967 H   0  0  0  0  0  0  0  0  0  0  0  0
   -1.3485   -0.7194    2.2393 H   0  0  0  0  0  0  0  0  0  0  0  0
    3.3156   -0.9814    0.1063 C   0  0  0  0  0  0  0  0  0  0  0  0
    3.2900   -1.9337   -0.9283 C   0  0  0  0  0  0  0  0  0  0  0  0
    2.5109   -1.8553   -1.7006 H   0  0  0  0  0  0  0  0  0  0  0  0
    4.2594   -2.9466   -0.9790 C   0  0  0  0  0  0  0  0  0  0  0  0
    4.2366   -3.6830   -1.7969 H   0  0  0  0  0  0  0  0  0  0  0  0
    5.2590   -3.0196    0.0042 C   0  0  0  0  0  0  0  0  0  0  0  0
    6.0201   -3.8135   -0.0383 H   0  0  0  0  0  0  0  0  0  0  0  0
    5.2907   -2.0685    1.0368 C   0  0  0  0  0  0  0  0  0  0  0  0
    6.0780   -2.1127    1.8047 H   0  0  0  0  0  0  0  0  0  0  0  0
    4.3253   -1.0519    1.0849 C   0  0  0  0  0  0  0  0  0  0  0  0
    4.3625   -0.2974    1.8877 H   0  0  0  0  0  0  0  0  0  0  0  0
    2.2318    0.0771    0.2047 C   0  0  2  0  0  0  0  0  0  0  0  0
    2.7063    1.0318    0.5393 H   0  0  0  0  0  0  0  0  0  0  0  0
    1.1580   -0.3372    1.2375 C   0  0  0  0  0  0  0  0  0  0  0  0
    0.8550   -1.3784    1.0075 H   0  0  0  0  0  0  0  0  0  0  0  0
    1.5797   -0.3379    2.2704 H   0  0  0  0  0  0  0  0  0  0  0  0
    0.1324    1.8729    1.6499 C   0  0  0  0  0  0  0  0  0  0  0  0
    1.2073    2.1440    1.6491 H   0  0  0  0  0  0  0  0  0  0  0  0
   -0.2330    1.9460    2.7019 H   0  0  0  0  0  0  0  0  0  0  0  0
   -0.5765    2.8956    0.7473 C   0  0  1  0  0  0  0  0  0  0  0  0
   -1.6785    2.8858    0.9297 H   0  0  0  0  0  0  0  0  0  0  0  0
   -0.0423    4.3169    0.9848 C   0  0  0  0  0  0  0  0  0  0  0  0
   -0.6670    5.0291    0.3948 H   0  0  0  0  0  0  0  0  0  0  0  0
   -0.1456    4.5861    2.0576 H   0  0  0  0  0  0  0  0  0  0  0  0
  1 18  1  0  0  0  0
  2 34  1  0  0  0  0
  3 42  1  0  0  0  0
  4 44  1  0  0  0  0
  5  4  1  0  0  0  0
  6 36  1  0  0  0  0
  6 20  1  0  0  0  0
  6 39  1  0  0  0  0
  7 16  1  0  0  0  0
  8 10  1  0  0  0  0
  8  7  2  0  0  0  0
  9  8  1  0  0  0  0
 10 12  2  0  0  0  0
 11 10  1  0  0  0  0
 12 13  1  0  0  0  0
 12 14  1  0  0  0  0
 14 15  1  0  0  0  0
 16 14  2  0  0  0  0
 16 17  1  0  0  0  0
 18 19  1  1  0  0  0
 18  7  1  0  0  0  0
 18 20  1  0  0  0  0
 20 21  1  0  0  0  0
 20 22  1  0  0  0  0
 23 34  1  0  0  0  0
 23 32  1  0  0  0  0
 24 23  2  0  0  0  0
 25 24  1  0  0  0  0
 26 24  1  0  0  0  0
 26 28  2  0  0  0  0
 27 26  1  0  0  0  0
 28 30  1  0  0  0  0
 29 28  1  0  0  0  0
 30 32  2  0  0  0  0
 30 31  1  0  0  0  0
 32 33  1  0  0  0  0
 34 35  1  1  0  0  0
 34 36  1  0  0  0  0
 36 38  1  0  0  0  0
 37 36  1  0  0  0  0
 39 41  1  0  0  0  0
 40 39  1  0  0  0  0
 42 43  1  1  0  0  0
 42 44  1  0  0  0  0
 42 39  1  0  0  0  0
 44 46  1  0  0  0  0
 45 44  1  0  0  0  0
M  END
