5,7,14,18
q = -2.0, confidence = 0.88

 26 26  0  0  1  0  0  0  0  0999 V2000
    6.1982   -0.5988    0.0466 Br  0  0  0  0  0  0  0  0  0  0  0  0
   -4.3554    0.5960    0.4984 S   0  0  0  0  0  0  0  0  0  0  0  0
   -2.8095   -1.0275   -1.5389 S   0  0  2  0  0  3  0  0  0  0  0  0
   -4.2511   -0.3259   -1.0540 O   0  0  0  0  0  0  0  0  0  0  0  0
   -2.9339    1.0480    0.7547 O   0  0  0  0  0  1  0  0  0  0  0  0
   -5.2943    1.6673    0.1323 O   0  0  0  0  0  1  0  0  0  0  0  0
    0.6632    1.9163    0.0159 O   0  5  0  0  0  0  0  0  0  0  0  0
   -4.8294   -0.4504    1.4427 O   0  0  0  0  0  1  0  0  0  0  0  0
   -3.3449   -2.7846    0.4253 N   0  0  0  0  0  0  0  0  0  0  0  0
    1.8001    1.3059    0.0169 C   0  0  0  0  0  0  0  0  0  0  0  0
   -1.2067   -1.8363    0.6941 N   0  0  0  0  0  2  0  0  0  0  0  0
    2.0004   -0.1316    0.2178 C   0  0  0  0  0  0  0  0  0  0  0  0
    0.9395   -1.1014    0.3679 C   0  0  0  0  0  3  0  0  0  0  0  0
   -0.3368   -0.8173    0.4771 N   0  0  0  0  0  2  0  0  0  0  0  0
   -2.3584   -1.8601    0.1082 C   0  0  1  0  0  3  0  0  0  0  0  0
    4.4336    0.1586    0.0277 C   0  0  0  0  0  0  0  0  0  0  0  0
    3.3231   -0.6565    0.2135 C   0  0  0  0  0  0  0  0  0  0  0  0
   -1.7760    0.0365   -1.8453 O   0  0  0  0  0  1  0  0  0  0  0  0
    2.9918    2.0841   -0.2022 C   0  0  0  0  0  0  0  0  0  0  0  0
    4.2727    1.5461   -0.1847 C   0  0  0  0  0  0  0  0  0  0  0  0
    1.2380   -2.1719    0.3689 H   0  0  0  0  0  0  0  0  0  0  0  0
    3.4583   -1.7390    0.3657 H   0  0  0  0  0  0  0  0  0  0  0  0
    2.8374    3.1608   -0.3710 H   0  0  0  0  0  0  0  0  0  0  0  0
    5.1541    2.1864   -0.3384 H   0  0  0  0  0  0  0  0  0  0  0  0
   -4.2375   -2.2872    0.5961 H   0  0  0  0  0  0  0  0  0  0  0  0
   -3.0733   -3.2907    1.2779 H   0  0  0  0  0  0  0  0  0  0  0  0
  2  5  1  0  0  0  0
  2  8  1  0  0  0  0
  3 18  1  1  0  0  0
  3  4  1  0  0  0  0
  3 15  1  0  0  0  0
  4  2  1  0  0  0  0
  6  2  1  0  0  0  0
  7 10  1  0  0  0  0
  9 25  1  0  0  0  0
  9 26  1  0  0  0  0
 10 12  1  0  0  0  0
 12 13  1  0  0  0  0
 13 21  1  0  0  0  0
 13 14  1  0  0  0  0
 14 11  1  0  0  0  0
 15  9  1  0  0  0  0
 15 11  1  6  0  0  0
 16  1  1  0  0  0  0
 16 17  1  0  0  0  0
 17 12  2  0  0  0  0
 17 22  1  0  0  0  0
 19 20  1  0  0  0  0
 19 10  2  0  0  0  0
 20 16  2  0  0  0  0
 23 19  1  0  0  0  0
 24 20  1  0  0  0  0
M  CHG  1   7  -1
M  END
