1,4,5,6
q = -1.0, confidence = 0.418

 38 40  0  0  1  0  0  0  0  0999 V2000
   -0.3415   -1.9030   -0.5817 N   0  0  0  0  0  2  0  0  0  0  0  0
   -4.0318   -0.0042   -0.3035 N   0  0  0  0  0  0  0  0  0  0  0  0
   -2.1624    2.6450   -1.3546 N   0  0  0  0  0  0  0  0  0  0  0  0
    1.4706   -1.9733    1.1020 O   0  0  0  0  0  1  0  0  0  0  0  0
    0.1200    0.3532   -1.6606 O   0  0  0  0  0  1  0  0  0  0  0  0
   -0.5628    0.3374    0.7426 O   0  0  0  0  0  1  0  0  0  0  0  0
    0.8799   -3.2290    0.9280 C   0  0  0  0  0  0  0  0  0  0  0  0
    0.5263   -3.6434    1.9024 H   0  0  0  0  0  0  0  0  0  0  0  0
    1.6281   -3.9573    0.5268 H   0  0  0  0  0  0  0  0  0  0  0  0
   -0.2872   -3.1242   -0.0341 C   0  0  1  0  0  3  0  0  0  0  0  0
   -1.2648   -4.0737   -0.3644 C   0  0  0  0  0  0  0  0  0  0  0  0
   -1.2337   -5.0842    0.0678 H   0  0  0  0  0  0  0  0  0  0  0  0
   -2.2873   -3.6932   -1.2524 C   0  0  0  0  0  0  0  0  0  0  0  0
   -3.0630   -4.4221   -1.5327 H   0  0  0  0  0  0  0  0  0  0  0  0
   -2.3502   -2.3814   -1.7547 C   0  0  0  0  0  0  0  0  0  0  0  0
   -3.1785   -2.0469   -2.3933 H   0  0  0  0  0  0  0  0  0  0  0  0
   -1.3454   -1.4823   -1.3776 C   0  0  0  0  0  0  0  0  0  0  0  0
   -1.2282    0.0172   -1.5314 C   0  0  1  0  0  0  0  0  0  0  0  0
   -1.8661    0.4633   -2.3185 H   0  0  0  0  0  0  0  0  0  0  0  0
   -1.6605    0.5689   -0.0848 C   0  0  0  0  0  0  0  0  0  0  0  0
   -2.9088   -0.1526    0.4263 C   0  0  0  0  0  0  0  0  0  0  0  0
   -2.8499   -0.9457    1.5881 C   0  0  0  0  0  0  0  0  0  0  0  0
   -1.8988   -1.0101    2.1343 H   0  0  0  0  0  0  0  0  0  0  0  0
   -4.0062   -1.6262    1.9915 C   0  0  0  0  0  0  0  0  0  0  0  0
   -3.9956   -2.2598    2.8922 H   0  0  0  0  0  0  0  0  0  0  0  0
   -5.1769   -1.4840    1.2318 C   0  0  0  0  0  0  0  0  0  0  0  0
   -6.1091   -1.9970    1.5119 H   0  0  0  0  0  0  0  0  0  0  0  0
   -5.1323   -0.6558    0.0971 C   0  0  0  0  0  0  0  0  0  0  0  0
   -6.0371   -0.5141   -0.5220 H   0  0  0  0  0  0  0  0  0  0  0  0
   -1.9643    2.0758   -0.1589 C   0  0  0  0  0  0  0  0  0  0  0  0
   -2.0263    2.8028    1.0478 C   0  0  0  0  0  0  0  0  0  0  0  0
   -1.8582    2.2827    2.0011 H   0  0  0  0  0  0  0  0  0  0  0  0
   -2.2936    4.1743    0.9952 C   0  0  0  0  0  0  0  0  0  0  0  0
   -2.3510    4.7697    1.9198 H   0  0  0  0  0  0  0  0  0  0  0  0
   -2.4848    4.7770   -0.2592 C   0  0  0  0  0  0  0  0  0  0  0  0
   -2.6915    5.8536   -0.3529 H   0  0  0  0  0  0  0  0  0  0  0  0
   -2.4118    3.9638   -1.3993 C   0  0  0  0  0  0  0  0  0  0  0  0
   -2.5616    4.3983   -2.4040 H   0  0  0  0  0  0  0  0  0  0  0  0
  1 10  1  0  0  0  0
  2 28  2  0  0  0  0
  2 21  1  0  0  0  0
  3 30  1  0  0  0  0
  5 18  1  0  0  0  0
  7  4  1  0  0  0  0
  7  8  1  0  0  0  0
  9  7  1  0  0  0  0
 10  7  1  1  0  0  0
 11 10  1  0  0  0  0
 11 12  1  0  0  0  0
 13 11  2  0  0  0  0
 14 13  1  0  0  0  0
 15 17  2  0  0  0  0
 15 13  1  0  0  0  0
 16 15  1  0  0  0  0
 17  1  1  0  0  0  0
 18 19  1  6  0  0  0
 18 17  1  0  0  0  0
 18 20  1  0  0  0  0
 20 21  1  0  0  0  0
 20  6  1  0  0  0  0
 21 22  2  0  0  0  0
 22 24  1  0  0  0  0
 22 23  1  0  0  0  0
 24 25  1  0  0  0  0
 26 27  1  0  0  0  0
 26 24  2  0  0  0  0
 28 26  1  0  0  0  0
 29 28  1  0  0  0  0
 30 20  1  0  0  0  0
 30 31  2  0  0  0  0
 31 32  1  0  0  0  0
 33 31  1  0  0  0  0
 33 34  1  0  0  0  0
 35 33  2  0  0  0  0
 36 35  1  0  0  0  0
 37  3  2  0  0  0  0
 37 35  1  0  0  0  0
 38 37  1  0  0  0  0
M  END
