1,2,5,7
q = -1.0, confidence = 0.278

 31 30  0  0  1  0  0  0  0  0999 V2000
    1.7632    1.2850   -1.2602 O   0  5  0  0  0  0  0  0  0  0  0  0
    0.1595   -0.9441   -1.6474 O   0  5  0  0  0  0  0  0  0  0  0  0
    1.2127    3.4168   -1.7160 O   0  0  0  0  0  0  0  0  0  0  0  0
   -2.0099   -1.2050   -2.1989 O   0  0  0  0  0  0  0  0  0  0  0  0
    2.1201    0.4949    1.2854 O   0  5  0  0  0  0  0  0  0  0  0  0
    1.6456    1.5588    3.2172 O   0  0  0  0  0  0  0  0  0  0  0  0
   -0.3671    0.7901    0.2754 N   0  0  0  0  0  0  0  0  0  0  0  0
   -1.4883   -0.1360   -0.0757 C   0  0  2  0  0  0  0  0  0  0  0  0
   -1.1320   -0.8079   -1.4420 C   0  0  0  0  0  0  0  0  0  0  0  0
   -2.8887    0.4812   -0.0268 C   0  0  0  0  0  0  0  0  0  0  0  0
   -4.0157   -0.5516    0.1817 C   0  0  0  0  0  0  0  0  0  0  0  0
   -5.3779    0.0970   -0.0876 C   0  0  0  0  0  0  0  0  0  0  0  0
   -3.9793   -1.1752    1.5826 C   0  0  0  0  0  0  0  0  0  0  0  0
   -0.1815    1.0772    1.7202 C   0  0  0  0  0  0  0  0  0  0  0  0
    1.3161    1.0895    2.1395 C   0  0  0  0  0  0  0  0  0  0  0  0
   -0.3849    2.0321   -0.5576 C   0  0  0  0  0  0  0  0  0  0  0  0
    0.9709    2.3286   -1.2195 C   0  0  0  0  0  0  0  0  0  0  0  0
   -1.4468   -0.9462    0.6838 H   0  0  0  0  0  0  0  0  0  0  0  0
   -3.0776    1.0254   -0.9742 H   0  0  0  0  0  0  0  0  0  0  0  0
   -2.9307    1.2312    0.7952 H   0  0  0  0  0  0  0  0  0  0  0  0
   -3.8567   -1.3484   -0.5760 H   0  0  0  0  0  0  0  0  0  0  0  0
   -6.2032   -0.6327    0.0386 H   0  0  0  0  0  0  0  0  0  0  0  0
   -5.4350    0.4972   -1.1199 H   0  0  0  0  0  0  0  0  0  0  0  0
   -5.5657    0.9389    0.6132 H   0  0  0  0  0  0  0  0  0  0  0  0
   -4.7760   -1.9371    1.7001 H   0  0  0  0  0  0  0  0  0  0  0  0
   -4.1363   -0.4039    2.3675 H   0  0  0  0  0  0  0  0  0  0  0  0
   -3.0166   -1.6835    1.8030 H   0  0  0  0  0  0  0  0  0  0  0  0
   -0.6834    0.2814    2.3097 H   0  0  0  0  0  0  0  0  0  0  0  0
   -0.6529    2.0361    2.0150 H   0  0  0  0  0  0  0  0  0  0  0  0
   -0.7257    2.9021    0.0358 H   0  0  0  0  0  0  0  0  0  0  0  0
   -1.1039    1.8963   -1.3887 H   0  0  0  0  0  0  0  0  0  0  0  0
  1 17  1  0  0  0  0
  2  9  1  0  0  0  0
  3 17  2  0  0  0  0
  4  9  2  0  0  0  0
  5 15  1  0  0  0  0
  7 14  1  0  0  0  0
  8 10  1  0  0  0  0
  8  7  1  0  0  0  0
  8 18  1  1  0  0  0
  9  8  1  0  0  0  0
 10 11  1  0  0  0  0
 10 20  1  0  0  0  0
 11 13  1  0  0  0  0
 12 22  1  0  0  0  0
 12 11  1  0  0  0  0
 12 24  1  0  0  0  0
 13 25  1  0  0  0  0
 13 27  1  0  0  0  0
 13 26  1  0  0  0  0
 14 29  1  0  0  0  0
 14 15  1  0  0  0  0
 14 28  1  0  0  0  0
 15  6  2  0  0  0  0
 16 30  1  0  0  0  0
 16  7  1  0  0  0  0
 17 16  1  0  0  0  0
 19 10  1  0  0  0  0
 21 11  1  0  0  0  0
 23 12  1  0  0  0  0
 31 16  1  0  0  0  0
M  CHG  3   1  -1   2  -1   5  -1
M  END
