1,3,5,26
q = -3.0

 27 26  0  0  0  0  0  0  0  0999 V2000
   -1.1235    1.6678    0.9110 O   0  5  0  0  0  0  0  0  0  0  0  0
   -2.2148    3.2440   -0.2922 O   0  0  0  0  0  0  0  0  0  0  0  0
   -1.1719   -1.3652    1.0845 O   0  5  0  0  0  0  0  0  0  0  0  0
   -2.7355   -2.7163    0.1631 O   0  0  0  0  0  0  0  0  0  0  0  0
    1.5173    1.1275   -0.1060 O   0  5  0  0  0  0  0  0  0  0  0  0
    3.4889    1.1458   -1.2196 O   0  0  0  0  0  0  0  0  0  0  0  0
    0.0295   -0.6492   -2.0954 C   0  0  0  0  0  0  0  0  0  0  0  0
    0.8269    0.0567   -2.3991 H   0  0  0  0  0  0  0  0  0  0  0  0
   -0.4948   -0.9707   -3.0294 H   0  0  0  0  0  0  0  0  0  0  0  0
    0.6482   -1.8769   -1.4196 C   0  0  0  0  0  0  0  0  0  0  0  0
   -0.1433   -2.6141   -1.1787 H   0  0  0  0  0  0  0  0  0  0  0  0
    1.3497   -2.3717   -2.1326 H   0  0  0  0  0  0  0  0  0  0  0  0
   -1.0826    1.4792   -1.4794 C   0  0  0  0  0  0  0  0  0  0  0  0
   -1.8142    1.6516   -2.3010 H   0  0  0  0  0  0  0  0  0  0  0  0
   -0.1057    1.9175   -1.7664 H   0  0  0  0  0  0  0  0  0  0  0  0
   -1.5424    2.2204   -0.1949 C   0  0  0  0  0  0  0  0  0  0  0  0
   -2.1420   -0.6615   -0.9653 C   0  0  0  0  0  0  0  0  0  0  0  0
   -2.5214   -1.1417   -1.8962 H   0  0  0  0  0  0  0  0  0  0  0  0
   -2.9059    0.0726   -0.6368 H   0  0  0  0  0  0  0  0  0  0  0  0
   -2.0369   -1.7060    0.1653 C   0  0  0  0  0  0  0  0  0  0  0  0
    2.6737   -0.9452   -0.3199 C   0  0  0  0  0  0  0  0  0  0  0  0
    3.2720   -1.4453   -1.1143 H   0  0  0  0  0  0  0  0  0  0  0  0
    3.1984   -1.0576    0.6497 H   0  0  0  0  0  0  0  0  0  0  0  0
    2.5952    0.5749   -0.6034 C   0  0  0  0  0  0  0  0  0  0  0  0
   -0.8763    0.0550   -1.1817 N   0  0  0  0  0  0  0  0  0  0  0  0
    1.3275   -1.5082   -0.1687 N   0  0  0  0  0  0  0  0  0  0  0  0
    1.3089   -2.2873    0.4975 H   0  0  0  0  0  0  0  0  0  0  0  0
  2 16  2  0  0  0  0
  4 20  2  0  0  0  0
  6 24  2  0  0  0  0
  7 10  1  0  0  0  0
  7 25  1  0  0  0  0
  8  7  1  0  0  0  0
  9  7  1  0  0  0  0
 10 11  1  0  0  0  0
 10 26  1  0  0  0  0
 12 10  1  0  0  0  0
 13 25  1  0  0  0  0
 13 16  1  0  0  0  0
 14 13  1  0  0  0  0
 15 13  1  0  0  0  0
 16  1  1  0  0  0  0
 17 19  1  0  0  0  0
 17 20  1  0  0  0  0
 18 17  1  0  0  0  0
 20  3  1  0  0  0  0
 21 26  1  0  0  0  0
 21 23  1  0  0  0  0
 22 21  1  0  0  0  0
 24 21  1  0  0  0  0
 24  5  1  0  0  0  0
 25 17  1  0  0  0  0
 26 27  1  0  0  0  0
M  END
