1,3,5,33
q = -1.0, confidence = 0.362

 33 32  0  0  0  0  0  0  0  0999 V2000
    2.7037   -0.0199    0.9997 O   0  5  0  0  0  0  0  0  0  0  0  0
    4.6728    0.0100   -0.1152 O   0  0  0  0  0  0  0  0  0  0  0  0
    0.2157   -1.7382    0.9273 O   0  5  0  0  0  0  0  0  0  0  0  0
   -0.1380   -3.6408   -0.2415 O   0  0  0  0  0  0  0  0  0  0  0  0
    0.8128    1.9422    0.0407 O   0  5  0  0  0  0  0  0  0  0  0  0
   -0.1820    3.6296   -1.0868 O   0  0  0  0  0  0  0  0  0  0  0  0
   -4.6654   -0.9070    0.7781 O   0  0  0  0  0  0  0  0  0  0  0  0
   -5.5278   -0.8342    0.3146 H   0  0  0  0  0  0  0  0  0  0  0  0
   -4.1117    0.1891   -1.1153 O   0  0  0  0  0  0  0  0  0  0  0  0
    0.2723   -0.0539   -2.1290 C   0  0  0  0  0  0  0  0  0  0  0  0
    0.3525   -0.5729   -3.1161 H   0  0  0  0  0  0  0  0  0  0  0  0
    0.4338    1.0236   -2.3229 H   0  0  0  0  0  0  0  0  0  0  0  0
   -1.1299   -0.2953   -1.5746 C   0  0  0  0  0  0  0  0  0  0  0  0
   -1.8889    0.0721   -2.2991 H   0  0  0  0  0  0  0  0  0  0  0  0
   -1.3019   -1.3844   -1.4618 H   0  0  0  0  0  0  0  0  0  0  0  0
    2.6305    0.1089   -1.3917 C   0  0  0  0  0  0  0  0  0  0  0  0
    2.4766    1.1871   -1.5976 H   0  0  0  0  0  0  0  0  0  0  0  0
    3.2061   -0.3422   -2.2312 H   0  0  0  0  0  0  0  0  0  0  0  0
    3.4452    0.0161   -0.0754 C   0  0  0  0  0  0  0  0  0  0  0  0
    1.3955   -1.9791   -1.1141 C   0  0  0  0  0  0  0  0  0  0  0  0
    2.4078   -2.2498   -0.7502 H   0  0  0  0  0  0  0  0  0  0  0  0
    1.2513   -2.4703   -2.1030 H   0  0  0  0  0  0  0  0  0  0  0  0
    0.3967   -2.5456   -0.0875 C   0  0  0  0  0  0  0  0  0  0  0  0
   -1.5439    1.7924   -0.3219 C   0  0  0  0  0  0  0  0  0  0  0  0
   -1.9472    2.1208    0.6577 H   0  0  0  0  0  0  0  0  0  0  0  0
   -2.2633    2.0791   -1.1166 H   0  0  0  0  0  0  0  0  0  0  0  0
   -0.2129    2.5511   -0.5039 C   0  0  0  0  0  0  0  0  0  0  0  0
   -2.3759   -0.3597    0.5283 C   0  0  0  0  0  0  0  0  0  0  0  0
   -2.3858    0.0495    1.5599 H   0  0  0  0  0  0  0  0  0  0  0  0
   -2.0735   -1.4207    0.6656 H   0  0  0  0  0  0  0  0  0  0  0  0
   -3.7731   -0.3060   -0.0532 C   0  0  0  0  0  0  0  0  0  0  0  0
    1.3124   -0.5130   -1.2001 N   0  0  0  0  0  0  0  0  0  0  0  0
   -1.3394    0.3308   -0.2449 N   0  0  0  0  0  0  0  0  0  0  0  0
  2 19  2  0  0  0  0
  4 23  2  0  0  0  0
  6 27  2  0  0  0  0
  8  7  1  0  0  0  0
  9 31  2  0  0  0  0
 10 13  1  0  0  0  0
 10 32  1  0  0  0  0
 11 10  1  0  0  0  0
 12 10  1  0  0  0  0
 13 15  1  0  0  0  0
 13 33  1  0  0  0  0
 14 13  1  0  0  0  0
 16 32  1  0  0  0  0
 16 19  1  0  0  0  0
 17 16  1  0  0  0  0
 18 16  1  0  0  0  0
 19  1  1  0  0  0  0
 20 21  1  0  0  0  0
 20 23  1  0  0  0  0
 22 20  1  0  0  0  0
 23  3  1  0  0  0  0
 24 33  1  0  0  0  0
 24 25  1  0  0  0  0
 26 24  1  0  0  0  0
 27 24  1  0  0  0  0
 27  5  1  0  0  0  0
 28 30  1  0  0  0  0
 28 29  1  0  0  0  0
 31 28  1  0  0  0  0
 31  7  1  0  0  0  0
 32 20  1  0  0  0  0
 33 28  1  0  0  0  0
M  CHG  3   1  -1   3  -1   5  -1
M  END
