1,3,5,7
q = -1.0

 32 32  0  0  1  0  0  0  0  0999 V2000
    0.2415   -2.5511   -0.5433 O   0  5  0  0  0  0  0  0  0  0  0  0
    2.1893   -3.3324   -1.3719 O   0  0  0  0  0  0  0  0  0  0  0  0
   -0.5350   -1.7223    1.9201 O   0  5  0  0  0  0  0  0  0  0  0  0
    0.6903   -1.9267    3.8035 O   0  0  0  0  0  0  0  0  0  0  0  0
   -1.0240    0.7238    0.9648 O   0  5  0  0  0  0  0  0  0  0  0  0
   -0.2101    2.7961    1.3211 O   0  0  0  0  0  0  0  0  0  0  0  0
    1.3764   -0.3910    0.5389 N   0  0  0  0  0  0  0  0  0  0  0  0
    3.6360   -1.0648   -0.5060 C   0  0  0  0  0  0  0  0  0  0  0  0
    4.2870    0.2955   -0.4916 C   0  0  0  0  0  0  0  0  0  0  0  0
    4.9077    0.7950    0.6710 C   0  0  0  0  0  0  0  0  0  0  0  0
    5.4633    2.0838    0.7006 C   0  0  0  0  0  0  0  0  0  0  0  0
    5.4076    2.9008   -0.4388 C   0  0  0  0  0  0  0  0  0  0  0  0
    4.7992    2.4138   -1.6079 C   0  0  0  0  0  0  0  0  0  0  0  0
    4.2475    1.1257   -1.6323 C   0  0  0  0  0  0  0  0  0  0  0  0
    2.1066   -1.0320   -0.5999 C   0  0  1  0  0  0  0  0  0  0  0  0
    1.5004   -2.4489   -0.8600 C   0  0  0  0  0  0  0  0  0  0  0  0
    1.7301   -0.9383    1.8777 C   0  0  0  0  0  0  0  0  0  0  0  0
    0.5395   -1.5705    2.6376 C   0  0  0  0  0  0  0  0  0  0  0  0
    1.3014    1.0967    0.5101 C   0  0  0  0  0  0  0  0  0  0  0  0
   -0.0730    1.6180    0.9981 C   0  0  0  0  0  0  0  0  0  0  0  0
    4.9427    0.1616    1.5719 H   0  0  0  0  0  0  0  0  0  0  0  0
    5.9360    2.4546    1.6235 H   0  0  0  0  0  0  0  0  0  0  0  0
    5.8343    3.9153   -0.4164 H   0  0  0  0  0  0  0  0  0  0  0  0
    4.7497    3.0463   -2.5080 H   0  0  0  0  0  0  0  0  0  0  0  0
    3.7643    0.7551   -2.5507 H   0  0  0  0  0  0  0  0  0  0  0  0
    1.8037   -0.4419   -1.4899 H   0  0  0  0  0  0  0  0  0  0  0  0
    3.9525   -1.6622   -1.3858 H   0  0  0  0  0  0  0  0  0  0  0  0
    3.9541   -1.6525    0.3788 H   0  0  0  0  0  0  0  0  0  0  0  0
    2.4787   -1.7462    1.7627 H   0  0  0  0  0  0  0  0  0  0  0  0
    2.1944   -0.1545    2.5083 H   0  0  0  0  0  0  0  0  0  0  0  0
    2.1237    1.5641    1.0880 H   0  0  0  0  0  0  0  0  0  0  0  0
    1.3970    1.4183   -0.5445 H   0  0  0  0  0  0  0  0  0  0  0  0
  2 16  2  0  0  0  0
  3 18  1  0  0  0  0
  5 20  1  0  0  0  0
  7 17  1  0  0  0  0
  8  9  1  0  0  0  0
  8 28  1  0  0  0  0
  9 10  1  0  0  0  0
 10 11  2  0  0  0  0
 10 21  1  0  0  0  0
 11 22  1  0  0  0  0
 12 23  1  0  0  0  0
 12 11  1  0  0  0  0
 13 12  2  0  0  0  0
 14 13  1  0  0  0  0
 14  9  2  0  0  0  0
 15 26  1  6  0  0  0
 15  8  1  0  0  0  0
 15  7  1  0  0  0  0
 16 15  1  0  0  0  0
 16  1  1  0  0  0  0
 17 30  1  0  0  0  0
 17 18  1  0  0  0  0
 18  4  2  0  0  0  0
 19  7  1  0  0  0  0
 19 20  1  0  0  0  0
 19 31  1  0  0  0  0
 20  6  2  0  0  0  0
 24 13  1  0  0  0  0
 25 14  1  0  0  0  0
 27  8  1  0  0  0  0
 29 17  1  0  0  0  0
 32 19  1  0  0  0  0
M  CHG  3   1  -1   3  -1   5  -1
M  END
