5,10,25,41
q = -2.0, confidence = 0.824

 68 70  0  0  1  0  0  0  0  0999 V2000
   -2.1588    0.6772   -0.5002 N   0  0  0  0  0  0  0  0  0  0  0  0
   -1.8210    1.1694   -1.3446 H   0  0  0  0  0  0  0  0  0  0  0  0
   -1.3244    1.1073    0.6126 C   0  0  1  0  0  0  0  0  0  0  0  0
   -1.8195    0.7599    1.5568 H   0  0  0  0  0  0  0  0  0  0  0  0
   -0.0773    0.2882    0.4549 N   0  0  0  0  0  0  0  0  0  0  0  0
   -0.6398   -1.0761    0.2342 C   0  0  1  0  0  0  0  0  0  0  0  0
   -1.0045   -1.4504    1.2199 H   0  0  0  0  0  0  0  0  0  0  0  0
   -1.9081   -0.7685   -0.6304 C   0  0  1  0  0  0  0  0  0  0  0  0
   -1.7210   -1.0275   -1.6923 H   0  0  0  0  0  0  0  0  0  0  0  0
    1.1294    2.6664   -0.2013 O   0  5  0  0  0  0  0  0  0  0  0  0
    0.0553    3.2843    0.3220 C   0  0  0  0  0  0  0  0  0  0  0  0
   -1.1234    2.5994    0.7290 C   0  0  0  0  0  0  0  0  0  0  0  0
   -2.1849    3.3454    1.2826 C   0  0  0  0  0  0  0  0  0  0  0  0
   -3.0945    2.8064    1.5934 H   0  0  0  0  0  0  0  0  0  0  0  0
   -2.1088    4.7324    1.4383 C   0  0  0  0  0  0  0  0  0  0  0  0
   -2.9553    5.2896    1.8652 H   0  0  0  0  0  0  0  0  0  0  0  0
   -0.9335    5.4013    1.0499 C   0  0  0  0  0  0  0  0  0  0  0  0
   -0.8516    6.4924    1.1706 H   0  0  0  0  0  0  0  0  0  0  0  0
    0.1353    4.6864    0.5065 C   0  0  0  0  0  0  0  0  0  0  0  0
    1.0625    5.1849    0.1896 H   0  0  0  0  0  0  0  0  0  0  0  0
    0.8303    0.3407    1.5952 C   0  0  0  0  0  0  0  0  0  0  0  0
    0.4800   -0.3019    2.4367 H   0  0  0  0  0  0  0  0  0  0  0  0
    0.8784    1.3876    1.9613 H   0  0  0  0  0  0  0  0  0  0  0  0
    2.2358   -0.0339    1.1432 C   0  0  1  0  0  3  0  0  0  0  0  0
    2.6317    0.3242    0.0103 O   0  0  0  0  0  1  0  0  0  0  0  0
    3.0138   -0.6850    2.0195 N   0  0  0  0  0  0  0  0  0  0  0  0
    2.5681   -0.9866    2.8879 H   0  0  0  0  0  0  0  0  0  0  0  0
    4.4234   -1.1146    1.8040 C   0  0  0  0  0  0  0  0  0  0  0  0
    4.8555   -1.8120    3.1019 C   0  0  0  0  0  0  0  0  0  0  0  0
    4.7994   -1.1222    3.9694 H   0  0  0  0  0  0  0  0  0  0  0  0
    5.9028   -2.1577    3.0126 H   0  0  0  0  0  0  0  0  0  0  0  0
    4.2245   -2.7016    3.3083 H   0  0  0  0  0  0  0  0  0  0  0  0
    4.4836   -2.0985    0.6229 C   0  0  0  0  0  0  0  0  0  0  0  0
    3.8184   -2.9677    0.7954 H   0  0  0  0  0  0  0  0  0  0  0  0
    5.5211   -2.4661    0.4962 H   0  0  0  0  0  0  0  0  0  0  0  0
    4.1674   -1.6089   -0.3164 H   0  0  0  0  0  0  0  0  0  0  0  0
    5.3018    0.1208    1.5416 C   0  0  0  0  0  0  0  0  0  0  0  0
    4.9793    0.6461    0.6233 H   0  0  0  0  0  0  0  0  0  0  0  0
    6.3563   -0.1932    1.4131 H   0  0  0  0  0  0  0  0  0  0  0  0
    5.2517    0.8289    2.3930 H   0  0  0  0  0  0  0  0  0  0  0  0
    1.1163   -0.6524   -2.0270 O   0  5  0  0  0  0  0  0  0  0  0  0
    1.1405   -1.8431   -1.4227 C   0  0  0  0  0  0  0  0  0  0  0  0
    0.3275   -2.1041   -0.2868 C   0  0  0  0  0  0  0  0  0  0  0  0
    0.3844   -3.3776    0.3101 C   0  0  0  0  0  0  0  0  0  0  0  0
   -0.2812   -3.5852    1.1618 H   0  0  0  0  0  0  0  0  0  0  0  0
    1.2225   -4.3818   -0.1928 C   0  0  0  0  0  0  0  0  0  0  0  0
    1.2414   -5.3735    0.2824 H   0  0  0  0  0  0  0  0  0  0  0  0
    2.0185   -4.1168   -1.3218 C   0  0  0  0  0  0  0  0  0  0  0  0
    2.6755   -4.8996   -1.7311 H   0  0  0  0  0  0  0  0  0  0  0  0
    1.9832   -2.8581   -1.9305 C   0  0  0  0  0  0  0  0  0  0  0  0
    2.5992   -2.6218   -2.8100 H   0  0  0  0  0  0  0  0  0  0  0  0
   -3.0832   -1.6364   -0.1294 C   0  0  0  0  0  0  0  0  0  0  0  0
   -2.9220   -2.8356    0.1221 O   0  0  0  0  0  0  0  0  0  0  0  0
   -4.2359   -0.9346   -0.0062 N   0  0  0  0  0  0  0  0  0  0  0  0
   -4.1153    0.0711   -0.1975 H   0  0  0  0  0  0  0  0  0  0  0  0
   -5.5275   -1.4626    0.4679 C   0  0  0  0  0  0  0  0  0  0  0  0
   -6.5219   -0.2934    0.4378 C   0  0  0  0  0  0  0  0  0  0  0  0
   -6.1866    0.5329    1.0988 H   0  0  0  0  0  0  0  0  0  0  0  0
   -7.5178   -0.6269    0.7889 H   0  0  0  0  0  0  0  0  0  0  0  0
   -6.6366    0.1058   -0.5908 H   0  0  0  0  0  0  0  0  0  0  0  0
   -5.9982   -2.5902   -0.4701 C   0  0  0  0  0  0  0  0  0  0  0  0
   -6.1243   -2.2087   -1.5032 H   0  0  0  0  0  0  0  0  0  0  0  0
   -6.9703   -2.9971   -0.1263 H   0  0  0  0  0  0  0  0  0  0  0  0
   -5.2522   -3.4072   -0.4843 H   0  0  0  0  0  0  0  0  0  0  0  0
   -5.3709   -1.9947    1.9061 C   0  0  0  0  0  0  0  0  0  0  0  0
   -4.6148   -2.8023    1.9291 H   0  0  0  0  0  0  0  0  0  0  0  0
   -6.3347   -2.3958    2.2787 H   0  0  0  0  0  0  0  0  0  0  0  0
   -5.0449   -1.1825    2.5876 H   0  0  0  0  0  0  0  0  0  0  0  0
  1  3  1  0  0  0  0
  2  1  1  0  0  0  0
  3 12  1  0  0  0  0
  3  4  1  1  0  0  0
  5  3  1  0  0  0  0
  5 21  1  0  0  0  0
  6  5  1  0  0  0  0
  6  7  1  1  0  0  0
  8  9  1  6  0  0  0
  8  1  1  0  0  0  0
  8 52  1  0  0  0  0
  8  6  1  0  0  0  0
 10 11  1  0  0  0  0
 11 19  2  0  0  0  0
 11 12  1  0  0  0  0
 12 13  2  0  0  0  0
 13 15  1  0  0  0  0
 13 14  1  0  0  0  0
 15 16  1  0  0  0  0
 17 18  1  0  0  0  0
 17 15  2  0  0  0  0
 19 17  1  0  0  0  0
 20 19  1  0  0  0  0
 21 23  1  0  0  0  0
 21 22  1  0  0  0  0
 24 25  1  1  0  0  0
 24 21  1  0  0  0  0
 24 26  1  0  0  0  0
 26 27  1  0  0  0  0
 28 26  1  0  0  0  0
 28 29  1  0  0  0  0
 29 32  1  0  0  0  0
 29 30  1  0  0  0  0
 31 29  1  0  0  0  0
 33 34  1  0  0  0  0
 33 28  1  0  0  0  0
 35 33  1  0  0  0  0
 36 33  1  0  0  0  0
 37 28  1  0  0  0  0
 37 40  1  0  0  0  0
 38 37  1  0  0  0  0
 39 37  1  0  0  0  0
 41 42  1  0  0  0  0
 42 43  1  0  0  0  0
 43  6  1  0  0  0  0
 43 44  2  0  0  0  0
 44 45  1  0  0  0  0
 46 47  1  0  0  0  0
 46 44  1  0  0  0  0
 48 46  2  0  0  0  0
 49 48  1  0  0  0  0
 50 42  2  0  0  0  0
 50 48  1  0  0  0  0
 51 50  1  0  0  0  0
 52 54  1  0  0  0  0
 52 53  2  0  0  0  0
 54 56  1  0  0  0  0
 55 54  1  0  0  0  0
 56 65  1  0  0  0  0
 57 56  1  0  0  0  0
 57 59  1  0  0  0  0
 57 58  1  0  0  0  0
 60 57  1  0  0  0  0
 61 63  1  0  0  0  0
 61 56  1  0  0  0  0
 62 61  1  0  0  0  0
 64 61  1  0  0  0  0
 65 66  1  0  0  0  0
 65 67  1  0  0  0  0
 65 68  1  0  0  0  0
M  CHG  2  10  -1  41  -1
M  END
