22,35,40,54
q = -2.0, confidence = 0.826

 64 68  0  0  1  0  0  0  0  0999 V2000
   -1.3802    1.1927    0.7192 C   0  0  2  0  0  0  0  0  0  0  0  0
   -1.8574    0.7168    1.6146 H   0  0  0  0  0  0  0  0  0  0  0  0
   -2.1604    0.8060   -0.4544 N   0  0  0  0  0  0  0  0  0  0  0  0
   -1.8797    1.4301   -1.2292 H   0  0  0  0  0  0  0  0  0  0  0  0
   -1.7510   -0.5761   -0.7703 C   0  0  2  0  0  0  0  0  0  0  0  0
   -1.4602   -0.6531   -1.8382 H   0  0  0  0  0  0  0  0  0  0  0  0
   -2.8517   -1.6212   -0.5016 C   0  0  0  0  0  0  0  0  0  0  0  0
   -2.5901   -2.8235   -0.4771 O   0  0  0  0  0  0  0  0  0  0  0  0
   -4.0714   -1.0373   -0.2940 N   0  0  0  0  0  0  0  0  0  0  0  0
   -4.0008   -0.0057   -0.3135 H   0  0  0  0  0  0  0  0  0  0  0  0
   -5.3112   -1.6308   -0.0170 C   0  0  0  0  0  0  0  0  0  0  0  0
   -5.4840   -3.0313    0.0622 C   0  0  0  0  0  0  0  0  0  0  0  0
   -4.6147   -3.6805   -0.0992 H   0  0  0  0  0  0  0  0  0  0  0  0
   -6.7541   -3.5528    0.3442 C   0  0  0  0  0  0  0  0  0  0  0  0
   -6.8804   -4.6449    0.4029 H   0  0  0  0  0  0  0  0  0  0  0  0
   -7.8574   -2.7092    0.5494 C   0  0  0  0  0  0  0  0  0  0  0  0
   -8.8490   -3.1320    0.7689 H   0  0  0  0  0  0  0  0  0  0  0  0
   -7.6819   -1.3180    0.4691 C   0  0  0  0  0  0  0  0  0  0  0  0
   -8.5362   -0.6416    0.6247 H   0  0  0  0  0  0  0  0  0  0  0  0
   -6.4209   -0.7799    0.1881 C   0  0  0  0  0  0  0  0  0  0  0  0
   -6.2855    0.3115    0.1217 H   0  0  0  0  0  0  0  0  0  0  0  0
    0.9194    3.0297    0.0525 O   0  5  0  0  0  0  0  0  0  0  0  0
   -0.2006    3.4989    0.6318 C   0  0  0  0  0  0  0  0  0  0  0  0
   -1.3090    2.6777    0.9786 C   0  0  0  0  0  0  0  0  0  0  0  0
   -2.4252    3.2728    1.6033 C   0  0  0  0  0  0  0  0  0  0  0  0
   -3.2793    2.6295    1.8699 H   0  0  0  0  0  0  0  0  0  0  0  0
   -2.4698    4.6413    1.8837 C   0  0  0  0  0  0  0  0  0  0  0  0
   -3.3564    5.0798    2.3641 H   0  0  0  0  0  0  0  0  0  0  0  0
   -1.3636    5.4448    1.5519 C   0  0  0  0  0  0  0  0  0  0  0  0
   -1.3769    6.5234    1.7710 H   0  0  0  0  0  0  0  0  0  0  0  0
   -0.2422    4.8801    0.9418 C   0  0  0  0  0  0  0  0  0  0  0  0
    0.6342    5.4853    0.6694 H   0  0  0  0  0  0  0  0  0  0  0  0
   -0.5194   -0.8767    0.1409 C   0  0  2  0  0  0  0  0  0  0  0  0
   -0.9107   -1.3556    1.0708 H   0  0  0  0  0  0  0  0  0  0  0  0
   -0.0714    0.4991    0.5057 N   0  0  0  0  0  0  0  0  0  0  0  0
    0.8374    0.4999    1.6500 C   0  0  0  0  0  0  0  0  0  0  0  0
    0.5174   -0.2216    2.4382 H   0  0  0  0  0  0  0  0  0  0  0  0
    0.8462    1.5174    2.0928 H   0  0  0  0  0  0  0  0  0  0  0  0
    2.2433    0.2133    1.1356 C   0  0  1  0  0  3  0  0  0  0  0  0
    2.6494    0.8169    0.1199 O   0  0  0  0  0  1  0  0  0  0  0  0
    2.9923   -0.6760    1.8247 N   0  0  0  0  0  0  0  0  0  0  0  0
    2.5143   -1.1410    2.5992 H   0  0  0  0  0  0  0  0  0  0  0  0
    4.2645   -1.2099    1.5087 C   0  0  0  0  0  0  0  0  0  0  0  0
    5.0732   -0.7098    0.4673 C   0  0  0  0  0  0  0  0  0  0  0  0
    4.7300    0.1406   -0.1316 H   0  0  0  0  0  0  0  0  0  0  0  0
    6.3060   -1.3253    0.2087 C   0  0  0  0  0  0  0  0  0  0  0  0
    6.9325   -0.9345   -0.6071 H   0  0  0  0  0  0  0  0  0  0  0  0
    6.7448   -2.4209    0.9675 C   0  0  0  0  0  0  0  0  0  0  0  0
    7.7142   -2.8935    0.7516 H   0  0  0  0  0  0  0  0  0  0  0  0
    5.9369   -2.9085    2.0074 C   0  0  0  0  0  0  0  0  0  0  0  0
    6.2663   -3.7664    2.6124 H   0  0  0  0  0  0  0  0  0  0  0  0
    4.7033   -2.3075    2.2785 C   0  0  0  0  0  0  0  0  0  0  0  0
    4.0647   -2.6983    3.0870 H   0  0  0  0  0  0  0  0  0  0  0  0
    1.2640   -0.1301   -1.9883 O   0  5  0  0  0  0  0  0  0  0  0  0
    1.4293   -1.3321   -1.4269 C   0  0  0  0  0  0  0  0  0  0  0  0
    0.5745   -1.7662   -0.3785 C   0  0  0  0  0  0  0  0  0  0  0  0
    0.7799   -3.0394    0.1855 C   0  0  0  0  0  0  0  0  0  0  0  0
    0.0900   -3.3817    0.9726 H   0  0  0  0  0  0  0  0  0  0  0  0
    1.8176   -3.8702   -0.2560 C   0  0  0  0  0  0  0  0  0  0  0  0
    1.9609   -4.8627    0.1956 H   0  0  0  0  0  0  0  0  0  0  0  0
    2.6688   -3.4270   -1.2845 C   0  0  0  0  0  0  0  0  0  0  0  0
    3.4947   -4.0665   -1.6310 H   0  0  0  0  0  0  0  0  0  0  0  0
    2.4791   -2.1701   -1.8671 C   0  0  0  0  0  0  0  0  0  0  0  0
    3.1355   -1.7972   -2.6661 H   0  0  0  0  0  0  0  0  0  0  0  0
  1 24  1  0  0  0  0
  1  2  1  1  0  0  0
  3  1  1  0  0  0  0
  4  3  1  0  0  0  0
  5  6  1  6  0  0  0
  5  7  1  0  0  0  0
  5  3  1  0  0  0  0
  5 33  1  0  0  0  0
  7  8  2  0  0  0  0
  7  9  1  0  0  0  0
  9 11  1  0  0  0  0
 10  9  1  0  0  0  0
 11 12  2  0  0  0  0
 11 20  1  0  0  0  0
 12 14  1  0  0  0  0
 13 12  1  0  0  0  0
 14 15  1  0  0  0  0
 14 16  2  0  0  0  0
 16 17  1  0  0  0  0
 18 16  1  0  0  0  0
 18 19  1  0  0  0  0
 20 18  2  0  0  0  0
 21 20  1  0  0  0  0
 22 23  1  0  0  0  0
 23 31  2  0  0  0  0
 23 24  1  0  0  0  0
 24 25  2  0  0  0  0
 25 26  1  0  0  0  0
 25 27  1  0  0  0  0
 27 28  1  0  0  0  0
 29 30  1  0  0  0  0
 29 27  2  0  0  0  0
 31 29  1  0  0  0  0
 32 31  1  0  0  0  0
 33 35  1  0  0  0  0
 33 34  1  1  0  0  0
 35  1  1  0  0  0  0
 35 36  1  0  0  0  0
 36 38  1  0  0  0  0
 36 37  1  0  0  0  0
 39 40  1  1  0  0  0
 39 36  1  0  0  0  0
 39 41  1  0  0  0  0
 41 42  1  0  0  0  0
 43 41  1  0  0  0  0
 43 52  1  0  0  0  0
 44 43  2  0  0  0  0
 45 44  1  0  0  0  0
 46 44  1  0  0  0  0
 46 48  2  0  0  0  0
 47 46  1  0  0  0  0
 48 50  1  0  0  0  0
 49 48  1  0  0  0  0
 50 52  2  0  0  0  0
 50 51  1  0  0  0  0
 52 53  1  0  0  0  0
 54 55  1  0  0  0  0
 55 56  1  0  0  0  0
 56 33  1  0  0  0  0
 56 57  2  0  0  0  0
 57 58  1  0  0  0  0
 59 57  1  0  0  0  0
 59 60  1  0  0  0  0
 61 59  2  0  0  0  0
 62 61  1  0  0  0  0
 63 55  2  0  0  0  0
 63 61  1  0  0  0  0
 64 63  1  0  0  0  0
M  CHG  2  22  -1  54  -1
M  END
