1
q = -1.0, confidence = 0.0

 20 19  0  0  0  0  0  0  0  0999 V2000
    2.5115   -1.2415    0.8318 S   0  0  0  0  0  1  0  0  0  0  0  0
    3.3172    0.0281   -0.0938 C   0  0  0  0  0  0  0  0  0  0  0  0
    2.4639    1.1416   -1.0523 S   0  0  0  0  0  0  0  0  0  0  0  0
    4.6835    0.0568   -0.0040 N   0  0  0  0  0  0  0  0  0  0  0  0
    5.4542   -0.9160    0.7638 C   0  0  0  0  0  0  0  0  0  0  0  0
    4.8339   -1.2675    1.6173 H   0  0  0  0  0  0  0  0  0  0  0  0
    6.3206   -0.3831    1.2140 H   0  0  0  0  0  0  0  0  0  0  0  0
    5.9350   -2.1004   -0.0360 C   0  0  0  0  0  0  0  0  0  0  0  0
    6.6294   -2.7685    0.5049 H   0  0  0  0  0  0  0  0  0  0  0  0
    5.5764   -2.3879   -1.2976 C   0  0  0  0  0  0  0  0  0  0  0  0
    4.8735   -1.7469   -1.8542 H   0  0  0  0  0  0  0  0  0  0  0  0
    5.9630   -3.2817   -1.8100 H   0  0  0  0  0  0  0  0  0  0  0  0
    5.4732    1.0510   -0.7239 C   0  0  0  0  0  0  0  0  0  0  0  0
    4.8225    1.4577   -1.5320 H   0  0  0  0  0  0  0  0  0  0  0  0
    6.3276    0.5328   -1.2131 H   0  0  0  0  0  0  0  0  0  0  0  0
    5.9692    2.1819    0.1368 C   0  0  0  0  0  0  0  0  0  0  0  0
    6.7244    2.8292   -0.3447 H   0  0  0  0  0  0  0  0  0  0  0  0
    5.5486    2.4603    1.3820 C   0  0  0  0  0  0  0  0  0  0  0  0
    4.7860    1.8391    1.8797 H   0  0  0  0  0  0  0  0  0  0  0  0
    5.9427    3.3239    1.9385 H   0  0  0  0  0  0  0  0  0  0  0  0
  2  4  1  0  0  0  0
  2  1  1  0  0  0  0
  3  2  2  0  0  0  0
  4  5  1  0  0  0  0
  5  7  1  0  0  0  0
  5  6  1  0  0  0  0
  8  9  1  0  0  0  0
  8  5  1  0  0  0  0
 10  8  2  0  0  0  0
 11 10  1  0  0  0  0
 12 10  1  0  0  0  0
 13  4  1  0  0  0  0
 13 16  1  0  0  0  0
 14 13  1  0  0  0  0
 15 13  1  0  0  0  0
 16 18  2  0  0  0  0
 17 16  1  0  0  0  0
 18 19  1  0  0  0  0
 18 20  1  0  0  0  0
M  END
