2
q = -1.0, confidence = 0.0

 19 19  0  0  0  0  0  0  0  0999 V2000
   -6.1411    1.9331   -1.0632 Cl  0  0  0  0  0  0  0  0  0  0  0  0
   -2.1801   -1.1877   -0.0940 S   0  0  0  0  0  1  0  0  0  0  0  0
   -1.9377    1.2363    0.9269 O   0  0  0  0  0  0  0  0  0  0  0  0
   -4.1146    0.6184    0.6488 N   0  0  0  0  0  0  0  0  0  0  0  0
   -2.8704    0.3193    0.5442 C   0  0  0  0  0  0  0  0  0  0  0  0
   -5.1881   -0.2035    0.3534 C   0  0  0  0  0  0  0  0  0  0  0  0
   -6.2637    0.3119   -0.4211 C   0  0  0  0  0  0  0  0  0  0  0  0
   -7.4079   -0.4502   -0.6911 C   0  0  0  0  0  0  0  0  0  0  0  0
   -8.2085   -0.0087   -1.3014 H   0  0  0  0  0  0  0  0  0  0  0  0
   -7.5154   -1.7533   -0.1821 C   0  0  0  0  0  0  0  0  0  0  0  0
   -8.4167   -2.3485   -0.3914 H   0  0  0  0  0  0  0  0  0  0  0  0
   -6.4712   -2.2839    0.5924 C   0  0  0  0  0  0  0  0  0  0  0  0
   -6.5473   -3.3039    0.9989 H   0  0  0  0  0  0  0  0  0  0  0  0
   -5.3257   -1.5223    0.8524 C   0  0  0  0  0  0  0  0  0  0  0  0
   -4.5066   -1.9344    1.4592 H   0  0  0  0  0  0  0  0  0  0  0  0
   -2.4501    2.4805    1.4177 C   0  0  0  0  0  0  0  0  0  0  0  0
   -3.1263    2.9488    0.6743 H   0  0  0  0  0  0  0  0  0  0  0  0
   -1.5618    3.1116    1.6087 H   0  0  0  0  0  0  0  0  0  0  0  0
   -3.0260    2.3311    2.3536 H   0  0  0  0  0  0  0  0  0  0  0  0
  1  7  1  0  0  0  0
  2  5  1  0  0  0  0
  3 16  1  0  0  0  0
  5  4  2  0  0  0  0
  5  3  1  0  0  0  0
  6  4  1  0  0  0  0
  6 14  1  0  0  0  0
  7  6  2  0  0  0  0
  8  7  1  0  0  0  0
  8 10  2  0  0  0  0
  9  8  1  0  0  0  0
 10 12  1  0  0  0  0
 11 10  1  0  0  0  0
 12 14  2  0  0  0  0
 12 13  1  0  0  0  0
 14 15  1  0  0  0  0
 16 18  1  0  0  0  0
 16 19  1  0  0  0  0
 17 16  1  0  0  0  0
M  END
