1
q = -1.0, confidence = 0.034

  5  4  0  0  0  0  0  0  0  0999 V2000
    2.4762   -0.7423   -0.2349 S   0  0  0  0  0  1  0  0  0  0  0  0
    3.5682    0.7359   -0.2409 C   0  0  0  0  0  0  0  0  0  0  0  0
    4.5920    0.3955   -0.4913 H   0  0  0  0  0  0  0  0  0  0  0  0
    3.5706    1.2155    0.7570 H   0  0  0  0  0  0  0  0  0  0  0  0
    3.2311    1.4716   -0.9986 H   0  0  0  0  0  0  0  0  0  0  0  0
  2  1  1  0  0  0  0
  2  4  1  0  0  0  0
  3  2  1  0  0  0  0
  5  2  1  0  0  0  0
M  END
