1
q = 0.0, confidence = 0.984

 12 12  0  0  1  0  0  0  0  0999 V2000
   -1.9150   -0.4282   -1.4166 S   0  0  0  0  0  1  0  0  0  0  0  0
   -4.4961   -0.5615   -1.9129 N   0  0  0  0  0  0  0  0  0  0  0  0
   -3.5541   -0.3217   -0.9289 C   0  0  2  0  0  3  0  0  0  0  0  0
   -4.0838   -0.0070    0.3562 C   0  0  0  0  0  0  0  0  0  0  0  0
   -5.4544    0.0437    0.5666 C   0  0  0  0  0  0  0  0  0  0  0  0
   -6.3656   -0.2150   -0.4905 C   0  0  0  0  0  0  0  0  0  0  0  0
   -5.8449   -0.5167   -1.7331 C   0  0  0  0  0  0  0  0  0  0  0  0
   -4.1211   -0.7928   -2.8407 H   0  0  0  0  0  0  0  0  0  0  0  0
   -3.3814    0.1986    1.1711 H   0  0  0  0  0  0  0  0  0  0  0  0
   -5.8367    0.2902    1.5686 H   0  0  0  0  0  0  0  0  0  0  0  0
   -7.4522   -0.1798   -0.3412 H   0  0  0  0  0  0  0  0  0  0  0  0
   -6.4590   -0.7327   -2.6184 H   0  0  0  0  0  0  0  0  0  0  0  0
  2  7  1  0  0  0  0
  2  3  1  0  0  0  0
  3  1  1  6  0  0  0
  3  4  1  0  0  0  0
  4  5  2  0  0  0  0
  4  9  1  0  0  0  0
  5 10  1  0  0  0  0
  6 11  1  0  0  0  0
  6  5  1  0  0  0  0
  7  6  2  0  0  0  0
  8  2  1  0  0  0  0
 12  7  1  0  0  0  0
M  END
