1
q = 0.0, confidence = 0.99

 18 18  0  0  0  0  0  0  0  0999 V2000
   -0.5080    0.3975   -1.6794 S   0  0  0  0  0  1  0  0  0  0  0  0
    1.2557    2.1725   -0.5869 N   0  0  0  0  0  0  0  0  0  0  0  0
   -0.8585    2.4932    0.0311 N   0  0  0  0  0  0  0  0  0  0  0  0
   -0.0386    1.7090   -0.7300 C   0  0  0  0  0  3  0  0  0  0  0  0
    2.3206    1.8431   -1.4970 C   0  0  0  0  0  0  0  0  0  0  0  0
   -2.2571    2.2445    0.3001 C   0  0  0  0  0  0  0  0  0  0  0  0
   -0.0792    3.3845    0.8814 C   0  0  0  0  0  0  0  0  0  0  0  0
    1.2702    3.4289    0.1525 C   0  0  0  0  0  0  0  0  0  0  0  0
    3.2804    1.7256   -0.9512 H   0  0  0  0  0  0  0  0  0  0  0  0
    2.0524    0.8930   -1.9992 H   0  0  0  0  0  0  0  0  0  0  0  0
    2.4574    2.6294   -2.2761 H   0  0  0  0  0  0  0  0  0  0  0  0
   -2.8254    3.1962    0.2349 H   0  0  0  0  0  0  0  0  0  0  0  0
   -2.4040    1.8050    1.3109 H   0  0  0  0  0  0  0  0  0  0  0  0
   -2.6602    1.5124   -0.4275 H   0  0  0  0  0  0  0  0  0  0  0  0
   -0.5596    4.3795    0.9725 H   0  0  0  0  0  0  0  0  0  0  0  0
    0.0158    2.9491    1.9049 H   0  0  0  0  0  0  0  0  0  0  0  0
    2.1358    3.4842    0.8441 H   0  0  0  0  0  0  0  0  0  0  0  0
    1.3352    4.2963   -0.5492 H   0  0  0  0  0  0  0  0  0  0  0  0
  1  4  1  0  0  0  0
  2  8  1  0  0  0  0
  3  6  1  0  0  0  0
  3  7  1  0  0  0  0
  4  2  1  0  0  0  0
  4  3  1  0  0  0  0
  5  9  1  0  0  0  0
  5  2  1  0  0  0  0
  6 13  1  0  0  0  0
  7 15  1  0  0  0  0
  7 16  1  0  0  0  0
  8 17  1  0  0  0  0
  8  7  1  0  0  0  0
 10  5  1  0  0  0  0
 11  5  1  0  0  0  0
 12  6  1  0  0  0  0
 14  6  1  0  0  0  0
 18  8  1  0  0  0  0
M  END
