1
q = -1.0, confidence = 0.0

 23 24  0  0  0  0  0  0  0  0999 V2000
    1.5606    0.3759   -0.7149 S   0  0  0  0  0  1  0  0  0  0  0  0
    3.0321    1.8107    1.1217 N   0  0  0  0  0  0  0  0  0  0  0  0
    3.2222    1.8788    2.4804 N   0  0  0  0  0  0  0  0  0  0  0  0
    2.4395    0.9887    3.0003 N   0  0  0  0  0  0  0  0  0  0  0  0
    1.7321    0.3234    2.0544 N   0  0  0  0  0  0  0  0  0  0  0  0
    2.0992    0.8372    0.8654 C   0  0  0  0  0  0  0  0  0  0  0  0
    3.7932    2.6063    0.2109 C   0  0  0  0  0  0  0  0  0  0  0  0
    3.1466    3.6430   -0.5002 C   0  0  0  0  0  0  0  0  0  0  0  0
    3.9230    4.3987   -1.3991 C   0  0  0  0  0  0  0  0  0  0  0  0
    3.4404    5.2099   -1.9656 H   0  0  0  0  0  0  0  0  0  0  0  0
    5.2883    4.1368   -1.5688 C   0  0  0  0  0  0  0  0  0  0  0  0
    5.8792    4.7409   -2.2740 H   0  0  0  0  0  0  0  0  0  0  0  0
    5.9066    3.1115   -0.8394 C   0  0  0  0  0  0  0  0  0  0  0  0
    6.9809    2.9098   -0.9708 H   0  0  0  0  0  0  0  0  0  0  0  0
    5.1722    2.3241    0.0654 C   0  0  0  0  0  0  0  0  0  0  0  0
    1.6830    3.9184   -0.2994 C   0  0  0  0  0  0  0  0  0  0  0  0
    1.3842    4.8693   -0.7791 H   0  0  0  0  0  0  0  0  0  0  0  0
    1.4275    3.9703    0.7781 H   0  0  0  0  0  0  0  0  0  0  0  0
    1.0677    3.1004   -0.7312 H   0  0  0  0  0  0  0  0  0  0  0  0
    5.8220    1.2196    0.8559 C   0  0  0  0  0  0  0  0  0  0  0  0
    5.7587    1.4206    1.9444 H   0  0  0  0  0  0  0  0  0  0  0  0
    6.8857    1.1027    0.5755 H   0  0  0  0  0  0  0  0  0  0  0  0
    5.3085    0.2506    0.6881 H   0  0  0  0  0  0  0  0  0  0  0  0
  1  6  1  0  0  0  0
  2  3  1  0  0  0  0
  3  4  2  0  0  0  0
  5  4  1  0  0  0  0
  6  2  1  0  0  0  0
  6  5  2  0  0  0  0
  7  2  1  0  0  0  0
  8 16  1  0  0  0  0
  8  7  2  0  0  0  0
  9  8  1  0  0  0  0
 10  9  1  0  0  0  0
 11  9  2  0  0  0  0
 11 13  1  0  0  0  0
 12 11  1  0  0  0  0
 13 15  2  0  0  0  0
 14 13  1  0  0  0  0
 15  7  1  0  0  0  0
 15 20  1  0  0  0  0
 16 18  1  0  0  0  0
 17 16  1  0  0  0  0
 19 16  1  0  0  0  0
 20 21  1  0  0  0  0
 22 20  1  0  0  0  0
 23 20  1  0  0  0  0
M  END
