1
q = -1.0, confidence = 0.002

 32 33  0  0  0  0  0  0  0  0999 V2000
   -0.8622    0.4667   -2.2447 S   0  0  0  0  0  1  0  0  0  0  0  0
   -2.8741   -3.0475   -1.2462 S   0  0  0  0  0  0  0  0  0  0  0  0
   -0.2962   -1.2422   -2.7273 C   0  0  0  0  0  0  0  0  0  0  0  0
   -1.2195   -1.7864   -3.0201 H   0  0  0  0  0  0  0  0  0  0  0  0
    0.3331   -1.1398   -3.6333 H   0  0  0  0  0  0  0  0  0  0  0  0
    0.4356   -2.0676   -1.7041 C   0  0  0  0  0  0  0  0  0  0  0  0
   -0.2021   -2.5504   -0.5264 C   0  0  0  0  0  0  0  0  0  0  0  0
    0.5232   -3.3700    0.3597 C   0  0  0  0  0  0  0  0  0  0  0  0
    0.0212   -3.7350    1.2701 H   0  0  0  0  0  0  0  0  0  0  0  0
    1.8584   -3.7204    0.1108 C   0  0  0  0  0  0  0  0  0  0  0  0
    2.4032   -4.3614    0.8200 H   0  0  0  0  0  0  0  0  0  0  0  0
    2.4905   -3.2418   -1.0457 C   0  0  0  0  0  0  0  0  0  0  0  0
    3.5385   -3.5031   -1.2568 H   0  0  0  0  0  0  0  0  0  0  0  0
    1.7788   -2.4256   -1.9368 C   0  0  0  0  0  0  0  0  0  0  0  0
    2.2718   -2.0533   -2.8492 H   0  0  0  0  0  0  0  0  0  0  0  0
   -1.6214   -2.1765   -0.2037 C   0  0  0  0  0  0  0  0  0  0  0  0
   -1.7643   -1.0948   -0.4083 H   0  0  0  0  0  0  0  0  0  0  0  0
   -1.8468   -2.3763    0.8622 H   0  0  0  0  0  0  0  0  0  0  0  0
   -3.9169   -1.6146   -1.7457 C   0  0  0  0  0  0  0  0  0  0  0  0
   -3.3514   -0.9783   -2.4561 H   0  0  0  0  0  0  0  0  0  0  0  0
   -4.7553   -2.0873   -2.3003 H   0  0  0  0  0  0  0  0  0  0  0  0
   -4.4288   -0.7706   -0.6020 C   0  0  0  0  0  0  0  0  0  0  0  0
   -5.0543   -1.3506    0.5213 C   0  0  0  0  0  0  0  0  0  0  0  0
   -5.1389   -2.4477    0.5741 H   0  0  0  0  0  0  0  0  0  0  0  0
   -5.5395   -0.5468    1.5620 C   0  0  0  0  0  0  0  0  0  0  0  0
   -6.0309   -1.0137    2.4298 H   0  0  0  0  0  0  0  0  0  0  0  0
   -5.4015    0.8517    1.5001 C   0  0  0  0  0  0  0  0  0  0  0  0
   -5.7812    1.4821    2.3189 H   0  0  0  0  0  0  0  0  0  0  0  0
   -4.7688    1.4372    0.3934 C   0  0  0  0  0  0  0  0  0  0  0  0
   -4.6356    2.5286    0.3431 H   0  0  0  0  0  0  0  0  0  0  0  0
   -4.2812    0.6307   -0.6484 C   0  0  0  0  0  0  0  0  0  0  0  0
   -3.7539    1.0850   -1.5013 H   0  0  0  0  0  0  0  0  0  0  0  0
  2 16  1  0  0  0  0
  3  1  1  0  0  0  0
  3  6  1  0  0  0  0
  4  3  1  0  0  0  0
  5  3  1  0  0  0  0
  6  7  1  0  0  0  0
  7 16  1  0  0  0  0
  7  8  2  0  0  0  0
  8  9  1  0  0  0  0
 10  8  1  0  0  0  0
 10 11  1  0  0  0  0
 12 10  2  0  0  0  0
 13 12  1  0  0  0  0
 14  6  2  0  0  0  0
 14 12  1  0  0  0  0
 15 14  1  0  0  0  0
 16 18  1  0  0  0  0
 17 16  1  0  0  0  0
 19  2  1  0  0  0  0
 19 22  1  0  0  0  0
 20 19  1  0  0  0  0
 21 19  1  0  0  0  0
 22 23  1  0  0  0  0
 23 24  1  0  0  0  0
 23 25  2  0  0  0  0
 25 26  1  0  0  0  0
 27 25  1  0  0  0  0
 27 28  1  0  0  0  0
 29 27  2  0  0  0  0
 30 29  1  0  0  0  0
 31 22  2  0  0  0  0
 31 29  1  0  0  0  0
 32 31  1  0  0  0  0
M  END
