1
q = -1.0, confidence = 0.064

 41 43  0  0  0  0  0  0  0  0999 V2000
    0.9619   -0.0422   -1.8639 S   0  0  0  0  0  1  0  0  0  0  0  0
    2.3560    0.0100   -0.1794 Si  0  0  0  0  0  0  0  0  0  0  0  0
    4.3698   -0.7722   -1.1238 Si  0  0  0  0  0  0  0  0  0  0  0  0
    1.7163   -1.4035    1.5973 Si  0  0  0  0  0  0  0  0  0  0  0  0
    2.6071    2.2245    0.5816 Si  0  0  0  0  0  0  0  0  0  0  0  0
    4.2607   -2.6559   -1.3567 C   0  0  0  0  0  0  0  0  0  0  0  0
    4.2191   -3.1815   -0.3807 H   0  0  0  0  0  0  0  0  0  0  0  0
    5.1369   -3.0433   -1.9181 H   0  0  0  0  0  0  0  0  0  0  0  0
    3.3421   -2.9122   -1.9232 H   0  0  0  0  0  0  0  0  0  0  0  0
    5.8538   -0.3510   -0.0083 C   0  0  0  0  0  0  0  0  0  0  0  0
    5.9794    0.7476    0.0825 H   0  0  0  0  0  0  0  0  0  0  0  0
    6.7942   -0.7665   -0.4284 H   0  0  0  0  0  0  0  0  0  0  0  0
    5.7233   -0.7634    1.0129 H   0  0  0  0  0  0  0  0  0  0  0  0
    4.5943    0.0459   -2.8214 C   0  0  0  0  0  0  0  0  0  0  0  0
    3.7007   -0.1400   -3.4515 H   0  0  0  0  0  0  0  0  0  0  0  0
    5.4863   -0.3570   -3.3459 H   0  0  0  0  0  0  0  0  0  0  0  0
    4.7130    1.1436   -2.7224 H   0  0  0  0  0  0  0  0  0  0  0  0
    1.0073   -3.0205    0.8976 C   0  0  0  0  0  0  0  0  0  0  0  0
    0.2290   -2.7982    0.1388 H   0  0  0  0  0  0  0  0  0  0  0  0
    0.5609   -3.6506    1.6956 H   0  0  0  0  0  0  0  0  0  0  0  0
    1.8009   -3.6069    0.3921 H   0  0  0  0  0  0  0  0  0  0  0  0
    0.4009   -0.5541    2.6854 C   0  0  0  0  0  0  0  0  0  0  0  0
    0.8364    0.3127    3.2233 H   0  0  0  0  0  0  0  0  0  0  0  0
   -0.0142   -1.2562    3.4394 H   0  0  0  0  0  0  0  0  0  0  0  0
   -0.4319   -0.1774    2.0559 H   0  0  0  0  0  0  0  0  0  0  0  0
    3.2248   -1.7920    2.6920 C   0  0  0  0  0  0  0  0  0  0  0  0
    3.9931   -2.3544    2.1231 H   0  0  0  0  0  0  0  0  0  0  0  0
    2.9326   -2.4066    3.5697 H   0  0  0  0  0  0  0  0  0  0  0  0
    3.6959   -0.8606    3.0673 H   0  0  0  0  0  0  0  0  0  0  0  0
    0.8971    2.9663    0.9543 C   0  0  0  0  0  0  0  0  0  0  0  0
    0.2440    2.8664    0.0629 H   0  0  0  0  0  0  0  0  0  0  0  0
    0.9697    4.0419    1.2203 H   0  0  0  0  0  0  0  0  0  0  0  0
    0.4122    2.4305    1.7951 H   0  0  0  0  0  0  0  0  0  0  0  0
    3.6614    2.2722    2.1678 C   0  0  0  0  0  0  0  0  0  0  0  0
    3.1599    1.7276    2.9944 H   0  0  0  0  0  0  0  0  0  0  0  0
    3.8306    3.3172    2.5034 H   0  0  0  0  0  0  0  0  0  0  0  0
    4.6518    1.8004    2.0051 H   0  0  0  0  0  0  0  0  0  0  0  0
    3.4409    3.2628   -0.7733 C   0  0  0  0  0  0  0  0  0  0  0  0
    4.4869    2.9339   -0.9413 H   0  0  0  0  0  0  0  0  0  0  0  0
    3.4575    4.3406   -0.5067 H   0  0  0  0  0  0  0  0  0  0  0  0
    2.8897    3.1465   -1.7289 H   0  0  0  0  0  0  0  0  0  0  0  0
  1  2  1  0  0  0  0
  2  5  1  0  0  0  0
  2  4  1  0  0  0  0
  2 14  1  0  0  0  0
  2 38  1  0  0  0  0
  2  6  1  0  0  0  0
  3  2  1  0  0  0  0
  3 10  1  0  0  0  0
  4 22  1  0  0  0  0
  4 26  1  0  0  0  0
  5 30  1  0  0  0  0
  5 34  1  0  0  0  0
  6  3  1  0  0  0  0
  6  7  1  0  0  0  0
  8  6  1  0  0  0  0
  9  6  1  0  0  0  0
 10 11  1  0  0  0  0
 10 13  1  0  0  0  0
 12 10  1  0  0  0  0
 14 17  1  0  0  0  0
 14  3  1  0  0  0  0
 15 14  1  0  0  0  0
 16 14  1  0  0  0  0
 18  4  1  0  0  0  0
 18 20  1  0  0  0  0
 19 18  1  0  0  0  0
 21 18  1  0  0  0  0
 22 23  1  0  0  0  0
 22 24  1  0  0  0  0
 25 22  1  0  0  0  0
 26 29  1  0  0  0  0
 26 28  1  0  0  0  0
 27 26  1  0  0  0  0
 30 32  1  0  0  0  0
 30 33  1  0  0  0  0
 31 30  1  0  0  0  0
 34 36  1  0  0  0  0
 34 35  1  0  0  0  0
 37 34  1  0  0  0  0
 38 40  1  0  0  0  0
 38  5  1  0  0  0  0
 39 38  1  0  0  0  0
 41 38  1  0  0  0  0
M  HYD  1   1   0
M  ZBO  3   4   0   5   0   6   0
M  END
