1
q = 0.0, confidence = 1.0

 17 17  0  0  0  0  0  0  0  0999 V2000
   -0.3603   -2.3491   -1.0413 S   0  0  0  0  0  0  0  0  0  0  0  0
   -1.8209   -1.8921   -0.2852 C   0  0  0  0  0  0  0  0  0  0  0  0
   -2.9620   -2.0564   -1.0832 N   0  0  0  0  0  0  0  0  0  0  0  0
   -2.8084   -2.3874   -2.0412 H   0  0  0  0  0  0  0  0  0  0  0  0
   -4.2250   -1.7867   -0.6445 C   0  0  0  0  0  0  0  0  0  0  0  0
   -4.3627   -1.3236    0.6514 C   0  0  0  0  0  0  0  0  0  0  0  0
   -5.3595   -1.1088    1.0577 H   0  0  0  0  0  0  0  0  0  0  0  0
   -3.1754   -1.0982    1.4205 C   0  0  0  0  0  0  0  0  0  0  0  0
   -1.9614   -1.3602    0.9387 N   0  0  0  0  0  0  0  0  0  0  0  0
   -3.2568   -0.5322    2.8062 C   0  0  0  0  0  0  0  0  0  0  0  0
   -2.3771   -0.8619    3.3888 H   0  0  0  0  0  0  0  0  0  0  0  0
   -4.1939   -0.8278    3.3165 H   0  0  0  0  0  0  0  0  0  0  0  0
   -3.2264    0.5783    2.7688 H   0  0  0  0  0  0  0  0  0  0  0  0
   -5.3486   -2.0103   -1.6051 C   0  0  0  0  0  0  0  0  0  0  0  0
   -5.2165   -1.3713   -2.5032 H   0  0  0  0  0  0  0  0  0  0  0  0
   -6.3197   -1.7672   -1.1387 H   0  0  0  0  0  0  0  0  0  0  0  0
   -5.3758   -3.0660   -1.9468 H   0  0  0  0  0  0  0  0  0  0  0  0
  1  2  2  0  0  0  0
  2  9  1  0  0  0  0
  3  5  1  0  0  0  0
  3  2  1  0  0  0  0
  4  3  1  0  0  0  0
  5  6  2  0  0  0  0
  6  7  1  0  0  0  0
  6  8  1  0  0  0  0
  8 10  1  0  0  0  0
  9  8  2  0  0  0  0
 10 12  1  0  0  0  0
 10 11  1  0  0  0  0
 13 10  1  0  0  0  0
 14 16  1  0  0  0  0
 14  5  1  0  0  0  0
 15 14  1  0  0  0  0
 17 14  1  0  0  0  0
M  END
