1
q = 0.0, confidence = 0.96

 23 23  0  0  0  0  0  0  0  0999 V2000
    2.0692    0.0980   -1.8517 S   0  0  0  0  0  1  0  0  0  0  0  0
   12.2073    0.7910    1.9849 O   0  0  0  0  0  0  0  0  0  0  0  0
   13.0667   -0.2917    0.2894 O   0  0  0  0  0  0  0  0  0  0  0  0
   12.1213    0.1967    0.9097 N   0  0  0  0  0  0  0  0  0  0  0  0
    5.8293    0.1129   -0.8664 N   0  0  0  0  0  0  0  0  0  0  0  0
    4.6606   -0.0675   -1.4793 N   0  0  0  0  0  0  0  0  0  0  0  0
    4.5725   -0.5668   -2.3790 H   0  0  0  0  0  0  0  0  0  0  0  0
    3.5542    1.0545    0.2151 N   0  0  0  0  0  4  0  0  0  0  0  0
    4.4691    1.0861    0.6735 H   0  0  0  0  0  0  0  0  0  0  0  0
    2.6844    1.3766    0.7091 H   0  0  0  0  0  0  0  0  0  0  0  0
    8.2224   -0.2016   -0.8061 C   0  0  0  0  0  0  0  0  0  0  0  0
    8.3995    0.4696    0.4313 C   0  0  0  0  0  0  0  0  0  0  0  0
    7.5189    0.8849    0.9408 H   0  0  0  0  0  0  0  0  0  0  0  0
    9.6681    0.6010    0.9928 C   0  0  0  0  0  0  0  0  0  0  0  0
    9.8347    1.1149    1.9487 H   0  0  0  0  0  0  0  0  0  0  0  0
   10.7724    0.0583    0.3151 C   0  0  0  0  0  0  0  0  0  0  0  0
   10.6339   -0.6105   -0.9083 C   0  0  0  0  0  0  0  0  0  0  0  0
   11.5298   -1.0160   -1.3965 H   0  0  0  0  0  0  0  0  0  0  0  0
    9.3581   -0.7369   -1.4628 C   0  0  0  0  0  0  0  0  0  0  0  0
    9.2316   -1.2594   -2.4237 H   0  0  0  0  0  0  0  0  0  0  0  0
    6.9092   -0.3559   -1.4192 C   0  0  0  0  0  0  0  0  0  0  0  0
    6.8619   -0.8967   -2.3910 H   0  0  0  0  0  0  0  0  0  0  0  0
    3.4688    0.4081   -0.9417 C   0  0  0  0  0  0  0  0  0  0  0  0
  1 23  1  0  0  0  0
  3  4  2  0  0  0  0
  4  2  2  0  0  0  0
  6 23  1  0  0  0  0
  6  5  1  0  0  0  0
  7  6  1  0  0  0  0
  8  9  1  0  0  0  0
  8 10  1  0  0  0  0
 11 12  1  0  0  0  0
 12 13  1  0  0  0  0
 12 14  2  0  0  0  0
 14 15  1  0  0  0  0
 16  4  1  0  0  0  0
 16 14  1  0  0  0  0
 17 16  2  0  0  0  0
 18 17  1  0  0  0  0
 19 17  1  0  0  0  0
 19 11  2  0  0  0  0
 20 19  1  0  0  0  0
 21  5  2  0  0  0  0
 21 11  1  0  0  0  0
 22 21  1  0  0  0  0
 23  8  2  0  0  0  0
M  END
