1
q = 0.0, confidence = 1.0

 22 22  0  0  1  0  0  0  0  0999 V2000
   -0.4455    0.4097    1.4946 S   0  0  0  0  0  1  0  0  0  0  0  0
   -1.6554    2.2033   -0.1779 N   0  0  0  0  0  0  0  0  0  0  0  0
   -1.0151    2.9347    0.1420 H   0  0  0  0  0  0  0  0  0  0  0  0
   -2.6337    0.2527   -0.2878 N   0  0  0  0  0  0  0  0  0  0  0  0
   -1.5944    0.9267    0.2982 C   0  0  2  0  0  3  0  0  0  0  0  0
   -2.7061    2.3537   -1.0539 C   0  0  0  0  0  0  0  0  0  0  0  0
   -2.9383    3.2998   -1.5516 H   0  0  0  0  0  0  0  0  0  0  0  0
   -3.3206    1.1277   -1.1204 C   0  0  0  0  0  0  0  0  0  0  0  0
   -4.1948    0.8238   -1.6979 H   0  0  0  0  0  0  0  0  0  0  0  0
   -3.0179   -1.2006   -0.0574 C   0  0  0  0  0  0  0  0  0  0  0  0
   -3.3865   -1.3713    1.4250 C   0  0  0  0  0  0  0  0  0  0  0  0
   -2.5310   -1.1506    2.0904 H   0  0  0  0  0  0  0  0  0  0  0  0
   -3.6945   -2.4198    1.6017 H   0  0  0  0  0  0  0  0  0  0  0  0
   -4.2347   -0.7138    1.6996 H   0  0  0  0  0  0  0  0  0  0  0  0
   -4.2334   -1.5357   -0.9312 C   0  0  0  0  0  0  0  0  0  0  0  0
   -5.1232   -0.9314   -0.6665 H   0  0  0  0  0  0  0  0  0  0  0  0
   -4.4975   -2.5950   -0.7545 H   0  0  0  0  0  0  0  0  0  0  0  0
   -4.0195   -1.4278   -2.0130 H   0  0  0  0  0  0  0  0  0  0  0  0
   -1.8342   -2.0909   -0.4671 C   0  0  0  0  0  0  0  0  0  0  0  0
   -0.9567   -1.9262    0.1844 H   0  0  0  0  0  0  0  0  0  0  0  0
   -1.5489   -1.9117   -1.5230 H   0  0  0  0  0  0  0  0  0  0  0  0
   -2.1323   -3.1523   -0.3697 H   0  0  0  0  0  0  0  0  0  0  0  0
  2  3  1  0  0  0  0
  2  5  1  0  0  0  0
  4 10  1  0  0  0  0
  4  5  1  0  0  0  0
  5  1  1  1  0  0  0
  6  2  1  0  0  0  0
  7  6  1  0  0  0  0
  8  6  2  0  0  0  0
  8  4  1  0  0  0  0
  9  8  1  0  0  0  0
 10 11  1  0  0  0  0
 11 13  1  0  0  0  0
 11 14  1  0  0  0  0
 11 12  1  0  0  0  0
 15 17  1  0  0  0  0
 15 16  1  0  0  0  0
 15 10  1  0  0  0  0
 18 15  1  0  0  0  0
 19 22  1  0  0  0  0
 19 10  1  0  0  0  0
 19 20  1  0  0  0  0
 21 19  1  0  0  0  0
M  END
