1
q = 0.0, confidence = 1.0

 41 40  0  0  0  0  0  0  0  0999 V2000
    2.0826   -0.7773   -1.2572 S   0  0  0  0  0  1  0  0  0  0  0  0
    3.4384    0.0696    0.0138 P   0  0  0  0  0  4  0  0  0  0  0  0
    4.2140   -1.0863    1.2333 C   0  0  0  0  0  0  0  0  0  0  0  0
    4.1686   -2.5757    0.8483 C   0  0  0  0  0  0  0  0  0  0  0  0
    4.5589   -3.4259    2.0629 C   0  0  0  0  0  0  0  0  0  0  0  0
    5.0256   -2.9054   -0.3774 C   0  0  0  0  0  0  0  0  0  0  0  0
    4.7796    0.7344   -1.0667 C   0  0  0  0  0  0  0  0  0  0  0  0
    5.9901    1.3766   -0.3368 C   0  0  0  0  0  0  0  0  0  0  0  0
    6.2719    2.7819   -0.8854 C   0  0  0  0  0  0  0  0  0  0  0  0
    7.2364    0.4864   -0.4225 C   0  0  0  0  0  0  0  0  0  0  0  0
    2.7873    1.4775    1.0147 C   0  0  0  0  0  0  0  0  0  0  0  0
    1.6675    2.3379    0.4054 C   0  0  0  0  0  0  0  0  0  0  0  0
    1.1960    3.3546    1.4510 C   0  0  0  0  0  0  0  0  0  0  0  0
    2.0261    2.9983   -0.9269 C   0  0  0  0  0  0  0  0  0  0  0  0
    3.6291   -0.9381    2.1621 H   0  0  0  0  0  0  0  0  0  0  0  0
    5.2556   -0.7405    1.4136 H   0  0  0  0  0  0  0  0  0  0  0  0
    3.1063   -2.7950    0.6050 H   0  0  0  0  0  0  0  0  0  0  0  0
    4.5057   -4.5065    1.8192 H   0  0  0  0  0  0  0  0  0  0  0  0
    3.8738   -3.2370    2.9138 H   0  0  0  0  0  0  0  0  0  0  0  0
    5.5960   -3.2078    2.3977 H   0  0  0  0  0  0  0  0  0  0  0  0
    4.6712   -2.3643   -1.2782 H   0  0  0  0  0  0  0  0  0  0  0  0
    4.9741   -3.9881   -0.6101 H   0  0  0  0  0  0  0  0  0  0  0  0
    6.0947   -2.6514   -0.2102 H   0  0  0  0  0  0  0  0  0  0  0  0
    4.2660    1.4616   -1.7255 H   0  0  0  0  0  0  0  0  0  0  0  0
    5.0928   -0.1051   -1.7203 H   0  0  0  0  0  0  0  0  0  0  0  0
    5.7393    1.4941    0.7428 H   0  0  0  0  0  0  0  0  0  0  0  0
    5.3908    3.4457   -0.7716 H   0  0  0  0  0  0  0  0  0  0  0  0
    6.5243    2.7401   -1.9658 H   0  0  0  0  0  0  0  0  0  0  0  0
    7.1255    3.2542   -0.3578 H   0  0  0  0  0  0  0  0  0  0  0  0
    7.0496   -0.5263   -0.0129 H   0  0  0  0  0  0  0  0  0  0  0  0
    8.0842    0.9291    0.1383 H   0  0  0  0  0  0  0  0  0  0  0  0
    7.5570    0.3632   -1.4785 H   0  0  0  0  0  0  0  0  0  0  0  0
    3.6720    2.0944    1.2916 H   0  0  0  0  0  0  0  0  0  0  0  0
    2.4035    0.9907    1.9351 H   0  0  0  0  0  0  0  0  0  0  0  0
    0.8199    1.6363    0.2070 H   0  0  0  0  0  0  0  0  0  0  0  0
    0.8450    2.8479    2.3728 H   0  0  0  0  0  0  0  0  0  0  0  0
    0.3538    3.9580    1.0559 H   0  0  0  0  0  0  0  0  0  0  0  0
    2.0086    4.0587    1.7326 H   0  0  0  0  0  0  0  0  0  0  0  0
    2.1844    2.2362   -1.7162 H   0  0  0  0  0  0  0  0  0  0  0  0
    2.9338    3.6356   -0.8456 H   0  0  0  0  0  0  0  0  0  0  0  0
    1.1927    3.6436   -1.2702 H   0  0  0  0  0  0  0  0  0  0  0  0
  1  2  1  0  0  0  0
  2 11  1  0  0  0  0
  2  3  1  0  0  0  0
  3 16  1  0  0  0  0
  3 15  1  0  0  0  0
  4  3  1  0  0  0  0
  4  5  1  0  0  0  0
  5 20  1  0  0  0  0
  5 19  1  0  0  0  0
  6 23  1  0  0  0  0
  6  4  1  0  0  0  0
  7  8  1  0  0  0  0
  7  2  1  0  0  0  0
  8 26  1  0  0  0  0
  9 27  1  0  0  0  0
  9 29  1  0  0  0  0
  9  8  1  0  0  0  0
 10  8  1  0  0  0  0
 10 30  1  0  0  0  0
 10 31  1  0  0  0  0
 11 33  1  0  0  0  0
 11 34  1  0  0  0  0
 12 11  1  0  0  0  0
 12 13  1  0  0  0  0
 13 38  1  0  0  0  0
 13 36  1  0  0  0  0
 14 40  1  0  0  0  0
 14 12  1  0  0  0  0
 17  4  1  0  0  0  0
 18  5  1  0  0  0  0
 21  6  1  0  0  0  0
 22  6  1  0  0  0  0
 24  7  1  0  0  0  0
 25  7  1  0  0  0  0
 28  9  1  0  0  0  0
 32 10  1  0  0  0  0
 35 12  1  0  0  0  0
 37 13  1  0  0  0  0
 39 14  1  0  0  0  0
 41 14  1  0  0  0  0
M  END
