1
q = 0.0, confidence = 1.0

 21 21  0  0  0  0  0  0  0  0999 V2000
   -0.8441    0.0000   -0.7872 S   0  0  0  0  0  0  0  0  0  0  0  0
   -2.1385    1.2040   -0.0717 C   0  0  0  0  0  0  0  0  0  0  0  0
   -2.6182    2.2033   -1.1179 C   0  0  0  0  0  0  0  0  0  0  0  0
   -3.0781    0.0000    0.1337 C   0  0  0  0  0  0  0  0  0  0  0  0
   -1.7636   -1.8728    1.2483 C   0  0  0  0  0  0  0  0  0  0  0  0
   -4.2669    0.0000    0.3513 O   0  0  0  0  0  0  0  0  0  0  0  0
   -1.4056    1.1559    2.0085 H   0  0  0  0  0  0  0  0  0  0  0  0
   -2.6650    2.3789    1.6518 H   0  0  0  0  0  0  0  0  0  0  0  0
   -0.9806    2.6391    1.0910 H   0  0  0  0  0  0  0  0  0  0  0  0
   -3.5310    2.7114   -0.7447 H   0  0  0  0  0  0  0  0  0  0  0  0
   -1.8411    2.9716   -1.3031 H   0  0  0  0  0  0  0  0  0  0  0  0
   -2.8613    1.7072   -2.0768 H   0  0  0  0  0  0  0  0  0  0  0  0
   -2.8614   -1.7072   -2.0768 H   0  0  0  0  0  0  0  0  0  0  0  0
   -1.8411   -2.9716   -1.3031 H   0  0  0  0  0  0  0  0  0  0  0  0
   -3.5309   -2.7115   -0.7447 H   0  0  0  0  0  0  0  0  0  0  0  0
   -1.4056   -1.1558    2.0085 H   0  0  0  0  0  0  0  0  0  0  0  0
   -2.6650   -2.3788    1.6518 H   0  0  0  0  0  0  0  0  0  0  0  0
   -0.9807   -2.6391    1.0911 H   0  0  0  0  0  0  0  0  0  0  0  0
   -2.1385   -1.2040   -0.0717 C   0  0  0  0  0  0  0  0  0  0  0  0
   -2.6182   -2.2033   -1.1179 C   0  0  0  0  0  0  0  0  0  0  0  0
   -1.7636    1.8729    1.2482 C   0  0  0  0  0  0  0  0  0  0  0  0
  1  2  1  0  0  0  0
  1 19  1  0  0  0  0
  2  4  1  0  0  0  0
  2 21  1  0  0  0  0
  3 10  1  0  0  0  0
  3  2  1  0  0  0  0
  4  6  2  0  0  0  0
  5 17  1  0  0  0  0
  5 16  1  0  0  0  0
  9 21  1  0  0  0  0
 11  3  1  0  0  0  0
 12  3  1  0  0  0  0
 13 20  1  0  0  0  0
 14 20  1  0  0  0  0
 18  5  1  0  0  0  0
 19  4  1  0  0  0  0
 19  5  1  0  0  0  0
 20 15  1  0  0  0  0
 20 19  1  0  0  0  0
 21  8  1  0  0  0  0
 21  7  1  0  0  0  0
M  END
