1
q = 0.0, confidence = 0.964

 14 14  0  0  0  0  0  0  0  0999 V2000
    2.2062   -0.1706   -0.7228 S   0  0  0  0  0  0  0  0  0  0  0  0
    3.1491    1.3466   -0.2971 C   0  0  0  0  0  0  0  0  0  0  0  0
    4.6480    1.0511   -0.3671 C   0  0  0  0  0  0  0  0  0  0  0  0
    3.0177   -1.2547    0.5209 C   0  0  0  0  0  0  0  0  0  0  0  0
    4.5331   -1.2027    0.3405 C   0  0  0  0  0  0  0  0  0  0  0  0
    5.0714    0.0857    0.5780 O   0  0  0  0  0  0  0  0  0  0  0  0
    2.8379    2.1179   -1.0272 H   0  0  0  0  0  0  0  0  0  0  0  0
    2.8322    1.6851    0.7082 H   0  0  0  0  0  0  0  0  0  0  0  0
    4.9246    0.7372   -1.4046 H   0  0  0  0  0  0  0  0  0  0  0  0
    5.2055    1.9817   -0.1341 H   0  0  0  0  0  0  0  0  0  0  0  0
    2.5859   -2.2592    0.3472 H   0  0  0  0  0  0  0  0  0  0  0  0
    2.7220   -0.9022    1.5288 H   0  0  0  0  0  0  0  0  0  0  0  0
    5.0070   -1.8820    1.0787 H   0  0  0  0  0  0  0  0  0  0  0  0
    4.8039   -1.5648   -0.6825 H   0  0  0  0  0  0  0  0  0  0  0  0
  1  2  1  0  0  0  0
  1  4  1  0  0  0  0
  2  8  1  0  0  0  0
  3  2  1  0  0  0  0
  3 10  1  0  0  0  0
  3  6  1  0  0  0  0
  4 12  1  0  0  0  0
  5  4  1  0  0  0  0
  5  6  1  0  0  0  0
  5 13  1  0  0  0  0
  7  2  1  0  0  0  0
  9  3  1  0  0  0  0
 11  4  1  0  0  0  0
 14  5  1  0  0  0  0
M  END
