1
q = 0.0, confidence = 1.0

 42 43  0  0  1  0  0  0  0  0999 V2000
   -0.5658   -0.9252   -1.1706 S   0  0  0  0  0  1  0  0  0  0  0  0
    0.6253    0.3099   -1.3162 C   0  0  2  0  0  3  0  0  0  0  0  0
    0.2133    1.7345   -1.2348 C   0  0  0  0  0  0  0  0  0  0  0  0
    0.8908    2.6595   -0.3865 C   0  0  0  0  0  0  0  0  0  0  0  0
    0.4895    4.0114   -0.4080 C   0  0  0  0  0  0  0  0  0  0  0  0
   -0.5638    4.4473   -1.2217 C   0  0  0  0  0  0  0  0  0  0  0  0
   -1.2450    3.5293   -2.0363 C   0  0  0  0  0  0  0  0  0  0  0  0
   -0.8563    2.1859   -2.0383 C   0  0  0  0  0  0  0  0  0  0  0  0
    1.9924    0.0326   -1.5199 C   0  0  0  0  0  3  0  0  0  0  0  0
    1.9449    2.2279    0.5717 C   0  0  0  0  0  0  0  0  0  0  0  0
    1.7230    1.1336    1.4369 C   0  0  0  0  0  0  0  0  0  0  0  0
    2.7115    0.7157    2.3358 C   0  0  0  0  0  0  0  0  0  0  0  0
    3.9462    1.3862    2.3893 C   0  0  0  0  0  0  0  0  0  0  0  0
    4.1740    2.4854    1.5461 C   0  0  0  0  0  0  0  0  0  0  0  0
    3.1796    2.9066    0.6492 C   0  0  0  0  0  0  0  0  0  0  0  0
    2.6976   -1.1592   -1.2244 C   0  0  0  0  0  0  0  0  0  0  0  0
    2.0709   -2.3117   -0.9594 N   0  0  0  0  0  4  0  0  0  0  0  0
    4.1955   -1.0958   -1.1003 C   0  0  0  0  0  0  0  0  0  0  0  0
    2.6375   -3.5331   -0.3831 C   0  0  0  0  0  0  0  0  0  0  0  0
    1.6899   -4.0425    0.7089 C   0  0  0  0  0  0  0  0  0  0  0  0
    2.8841   -4.5809   -1.4770 C   0  0  0  0  0  0  0  0  0  0  0  0
    0.9907    4.7204    0.2681 H   0  0  0  0  0  0  0  0  0  0  0  0
   -0.8666    5.5051   -1.2047 H   0  0  0  0  0  0  0  0  0  0  0  0
   -2.0813    3.8580   -2.6709 H   0  0  0  0  0  0  0  0  0  0  0  0
   -1.3701    1.4582   -2.6829 H   0  0  0  0  0  0  0  0  0  0  0  0
    2.6278    0.9003   -1.7452 H   0  0  0  0  0  0  0  0  0  0  0  0
    0.7585    0.6097    1.4036 H   0  0  0  0  0  0  0  0  0  0  0  0
    2.5064   -0.1342    3.0049 H   0  0  0  0  0  0  0  0  0  0  0  0
    4.7248    1.0599    3.0956 H   0  0  0  0  0  0  0  0  0  0  0  0
    5.1353    3.0204    1.5849 H   0  0  0  0  0  0  0  0  0  0  0  0
    3.3686    3.7589   -0.0218 H   0  0  0  0  0  0  0  0  0  0  0  0
    1.0285   -2.2588   -1.0371 H   0  0  0  0  0  0  0  0  0  0  0  0
    4.5800   -0.1702   -1.5638 H   0  0  0  0  0  0  0  0  0  0  0  0
    4.6967   -1.9667   -1.5668 H   0  0  0  0  0  0  0  0  0  0  0  0
    4.4849   -1.0677   -0.0277 H   0  0  0  0  0  0  0  0  0  0  0  0
    3.6081   -3.2709    0.0862 H   0  0  0  0  0  0  0  0  0  0  0  0
    2.1089   -4.9465    1.1922 H   0  0  0  0  0  0  0  0  0  0  0  0
    0.7045   -4.3159    0.2772 H   0  0  0  0  0  0  0  0  0  0  0  0
    1.5158   -3.2725    1.4853 H   0  0  0  0  0  0  0  0  0  0  0  0
    3.3228   -5.5006   -1.0413 H   0  0  0  0  0  0  0  0  0  0  0  0
    3.5772   -4.1991   -2.2527 H   0  0  0  0  0  0  0  0  0  0  0  0
    1.9318   -4.8553   -1.9747 H   0  0  0  0  0  0  0  0  0  0  0  0
  2  3  1  0  0  0  0
  2  1  1  6  0  0  0
  3  4  1  0  0  0  0
  4 10  1  0  0  0  0
  5  4  2  0  0  0  0
  5 22  1  0  0  0  0
  6 23  1  0  0  0  0
  6  5  1  0  0  0  0
  7  6  2  0  0  0  0
  8  7  1  0  0  0  0
  8  3  2  0  0  0  0
  9  2  1  0  0  0  0
  9 16  1  0  0  0  0
 10 15  2  0  0  0  0
 10 11  1  0  0  0  0
 11 12  2  0  0  0  0
 12 13  1  0  0  0  0
 12 28  1  0  0  0  0
 13 29  1  0  0  0  0
 14 30  1  0  0  0  0
 14 13  2  0  0  0  0
 15 14  1  0  0  0  0
 16 18  1  0  0  0  0
 16 17  2  0  0  0  0
 17 19  1  0  0  0  0
 18 35  1  0  0  0  0
 19 36  1  0  0  0  0
 19 20  1  0  0  0  0
 20 37  1  0  0  0  0
 20 39  1  0  0  0  0
 21 40  1  0  0  0  0
 21 19  1  0  0  0  0
 24  7  1  0  0  0  0
 25  8  1  0  0  0  0
 26  9  1  0  0  0  0
 27 11  1  0  0  0  0
 31 15  1  0  0  0  0
 32 17  1  0  0  0  0
 33 18  1  0  0  0  0
 34 18  1  0  0  0  0
 38 20  1  0  0  0  0
 41 21  1  0  0  0  0
 42 21  1  0  0  0  0
M  END
