3
q = -1.0, confidence = 0.0

 37 38  0  0  0  0  0  0  0  0999 V2000
   -1.9152    0.0049    0.1730 P   0  0  0  0  0  4  0  0  0  0  0  0
   -0.6088    0.4803    1.6058 S   0  0  0  0  0  1  0  0  0  0  0  0
   -1.0631   -0.5500   -1.6783 S   0  0  0  0  0  1  0  0  0  0  0  0
   -3.0017   -1.4218    0.6805 C   0  0  0  0  0  0  0  0  0  0  0  0
   -3.4812   -1.0524    1.6162 H   0  0  0  0  0  0  0  0  0  0  0  0
   -4.0811   -1.7596   -0.3597 C   0  0  0  0  0  0  0  0  0  0  0  0
   -4.7313   -0.8812   -0.5540 H   0  0  0  0  0  0  0  0  0  0  0  0
   -3.5759   -2.0027   -1.3210 H   0  0  0  0  0  0  0  0  0  0  0  0
   -4.9390   -2.9515    0.0933 C   0  0  0  0  0  0  0  0  0  0  0  0
   -5.6799   -3.2006   -0.6952 H   0  0  0  0  0  0  0  0  0  0  0  0
   -5.5260   -2.6559    0.9922 H   0  0  0  0  0  0  0  0  0  0  0  0
   -4.0794   -4.1746    0.4338 C   0  0  0  0  0  0  0  0  0  0  0  0
   -3.5755   -4.5346   -0.4912 H   0  0  0  0  0  0  0  0  0  0  0  0
   -4.7194   -5.0099    0.7880 H   0  0  0  0  0  0  0  0  0  0  0  0
   -3.0154   -3.8271    1.4823 C   0  0  0  0  0  0  0  0  0  0  0  0
   -2.3745   -4.7082    1.6954 H   0  0  0  0  0  0  0  0  0  0  0  0
   -3.5163   -3.5657    2.4417 H   0  0  0  0  0  0  0  0  0  0  0  0
   -2.1439   -2.6493    1.0283 C   0  0  0  0  0  0  0  0  0  0  0  0
   -1.5679   -2.9402    0.1215 H   0  0  0  0  0  0  0  0  0  0  0  0
   -1.4031   -2.3706    1.8050 H   0  0  0  0  0  0  0  0  0  0  0  0
   -3.0550    1.4194   -0.2445 C   0  0  0  0  0  0  0  0  0  0  0  0
   -3.6847    1.0490   -1.0853 H   0  0  0  0  0  0  0  0  0  0  0  0
   -3.9467    1.7822    0.9560 C   0  0  0  0  0  0  0  0  0  0  0  0
   -3.2851    2.0039    1.8227 H   0  0  0  0  0  0  0  0  0  0  0  0
   -4.5777    0.9181    1.2512 H   0  0  0  0  0  0  0  0  0  0  0  0
   -4.8367    2.9957    0.6481 C   0  0  0  0  0  0  0  0  0  0  0  0
   -5.5682    2.7196   -0.1447 H   0  0  0  0  0  0  0  0  0  0  0  0
   -5.4345    3.2576    1.5463 H   0  0  0  0  0  0  0  0  0  0  0  0
   -4.0143    4.2003    0.1761 C   0  0  0  0  0  0  0  0  0  0  0  0
   -3.3577    4.5413    1.0078 H   0  0  0  0  0  0  0  0  0  0  0  0
   -4.6820    5.0531   -0.0679 H   0  0  0  0  0  0  0  0  0  0  0  0
   -3.1442    3.8325   -1.0317 C   0  0  0  0  0  0  0  0  0  0  0  0
   -3.8008    3.5902   -1.8978 H   0  0  0  0  0  0  0  0  0  0  0  0
   -2.5241    4.6989   -1.3445 H   0  0  0  0  0  0  0  0  0  0  0  0
   -2.2407    2.6315   -0.7265 C   0  0  0  0  0  0  0  0  0  0  0  0
   -1.6456    2.3429   -1.6173 H   0  0  0  0  0  0  0  0  0  0  0  0
   -1.5146    2.8956    0.0740 H   0  0  0  0  0  0  0  0  0  0  0  0
  1  4  1  0  0  0  0
  1  2  1  0  0  0  0
  3  1  1  0  0  0  0
  4 18  1  0  0  0  0
  4  5  1  0  0  0  0
  6  9  1  0  0  0  0
  6  4  1  0  0  0  0
  7  6  1  0  0  0  0
  8  6  1  0  0  0  0
  9 12  1  0  0  0  0
  9 11  1  0  0  0  0
 10  9  1  0  0  0  0
 12 14  1  0  0  0  0
 12 15  1  0  0  0  0
 13 12  1  0  0  0  0
 15 16  1  0  0  0  0
 15 17  1  0  0  0  0
 18 15  1  0  0  0  0
 18 20  1  0  0  0  0
 19 18  1  0  0  0  0
 21  1  1  0  0  0  0
 21 23  1  0  0  0  0
 22 21  1  0  0  0  0
 23 25  1  0  0  0  0
 23 24  1  0  0  0  0
 26 23  1  0  0  0  0
 26 28  1  0  0  0  0
 27 26  1  0  0  0  0
 29 26  1  0  0  0  0
 29 30  1  0  0  0  0
 31 29  1  0  0  0  0
 32 35  1  0  0  0  0
 32 29  1  0  0  0  0
 33 32  1  0  0  0  0
 34 32  1  0  0  0  0
 35 21  1  0  0  0  0
 35 37  1  0  0  0  0
 36 35  1  0  0  0  0
M  END
