1
q = -1.0, confidence = 0.016

 18 18  0  0  0  0  0  0  0  0999 V2000
   -0.2506   -0.0007    0.9274 S   0  0  0  0  0  1  0  0  0  0  0  0
    7.5255   -0.0024   -0.5607 Cl  0  0  0  0  0  0  0  0  0  0  0  0
    0.7635    0.0023   -0.6381 C   0  0  0  0  0  0  0  0  0  0  0  0
    0.4797   -0.8946   -1.2247 H   0  0  0  0  0  0  0  0  0  0  0  0
    0.4794    0.9010   -1.2215 H   0  0  0  0  0  0  0  0  0  0  0  0
    2.2217    0.0018   -0.2814 C   0  0  0  0  0  0  0  0  0  0  0  0
    2.9177    1.2122   -0.0801 C   0  0  0  0  0  0  0  0  0  0  0  0
    2.3813    2.1638   -0.2180 H   0  0  0  0  0  0  0  0  0  0  0  0
    4.2653    1.2126    0.2975 C   0  0  0  0  0  0  0  0  0  0  0  0
    4.7950    2.1679    0.4435 H   0  0  0  0  0  0  0  0  0  0  0  0
    4.9572    0.0008    0.4982 C   0  0  0  0  0  0  0  0  0  0  0  0
    4.2643   -1.2105    0.2978 C   0  0  0  0  0  0  0  0  0  0  0  0
    4.7932   -2.1662    0.4440 H   0  0  0  0  0  0  0  0  0  0  0  0
    2.9167   -1.2091   -0.0798 C   0  0  0  0  0  0  0  0  0  0  0  0
    2.3794   -2.1603   -0.2174 H   0  0  0  0  0  0  0  0  0  0  0  0
    6.4004    0.0002    0.8914 C   0  0  0  0  0  0  0  0  0  0  0  0
    6.6699   -0.9008    1.4737 H   0  0  0  0  0  0  0  0  0  0  0  0
    6.6711    0.9023    1.4715 H   0  0  0  0  0  0  0  0  0  0  0  0
  2 16  1  0  0  0  0
  3  6  1  0  0  0  0
  3  1  1  0  0  0  0
  4  3  1  0  0  0  0
  5  3  1  0  0  0  0
  6  7  2  0  0  0  0
  6 14  1  0  0  0  0
  7  9  1  0  0  0  0
  8  7  1  0  0  0  0
  9 10  1  0  0  0  0
  9 11  2  0  0  0  0
 11 16  1  0  0  0  0
 12 13  1  0  0  0  0
 12 11  1  0  0  0  0
 14 12  2  0  0  0  0
 15 14  1  0  0  0  0
 16 18  1  0  0  0  0
 16 17  1  0  0  0  0
M  END
