1
q = -2.0, confidence = 0.758

  5  4  0  0  0  0  0  0  0  0999 V2000
   -1.0497   -0.2932   -1.4283 S   0  0  0  0  0  0  0  0  0  0  0  0
   -2.6883   -0.5100    0.0017 S   0  0  0  0  0  0  0  0  0  0  0  0
   -2.8544    0.8696    0.6293 O   0  0  0  0  0  0  0  0  0  0  0  0
   -3.8320   -0.9726   -0.8047 O   0  0  0  0  0  0  0  0  0  0  0  0
   -2.1608   -1.4814    1.0431 O   0  0  0  0  0  0  0  0  0  0  0  0
  1  2  1  0  0  0  0
  2  3  1  0  0  0  0
  2  5  1  0  0  0  0
  4  2  1  0  0  0  0
M  END
