1
q = 0.0, confidence = 0.958

 18 18  0  0  1  0  0  0  0  0999 V2000
   -0.7213   -1.1349   -0.2511 S   0  0  0  0  0  1  0  0  0  0  0  0
   -1.3153    1.5006    0.1902 N   0  0  0  0  0  0  0  0  0  0  0  0
   -3.0608    0.2427   -0.3404 N   0  0  0  0  0  0  0  0  0  0  0  0
   -1.7168    0.2475   -0.1309 C   0  0  2  0  0  3  0  0  0  0  0  0
   -3.6293    1.5438    0.0272 C   0  0  0  0  0  0  0  0  0  0  0  0
   -2.3929    2.4652   -0.0094 C   0  0  0  0  0  0  0  0  0  0  0  0
   -3.8647   -0.9635   -0.4755 C   0  0  0  0  0  0  0  0  0  0  0  0
   -4.2671   -1.5913    0.8601 C   0  0  0  0  0  0  0  0  0  0  0  0
   -0.3107    1.7162    0.1784 H   0  0  0  0  0  0  0  0  0  0  0  0
   -4.4197    1.8485   -0.6873 H   0  0  0  0  0  0  0  0  0  0  0  0
   -4.0791    1.5003    1.0460 H   0  0  0  0  0  0  0  0  0  0  0  0
   -2.4094    3.2343    0.7866 H   0  0  0  0  0  0  0  0  0  0  0  0
   -2.2937    2.9792   -0.9925 H   0  0  0  0  0  0  0  0  0  0  0  0
   -4.7572   -0.6985   -1.0802 H   0  0  0  0  0  0  0  0  0  0  0  0
   -3.2660   -1.6802   -1.0748 H   0  0  0  0  0  0  0  0  0  0  0  0
   -4.8733   -2.5020    0.6856 H   0  0  0  0  0  0  0  0  0  0  0  0
   -4.8729   -0.8978    1.4780 H   0  0  0  0  0  0  0  0  0  0  0  0
   -3.3672   -1.8836    1.4366 H   0  0  0  0  0  0  0  0  0  0  0  0
  3  4  1  0  0  0  0
  3  5  1  0  0  0  0
  4  1  1  1  0  0  0
  4  2  1  0  0  0  0
  5 11  1  0  0  0  0
  6  5  1  0  0  0  0
  6  2  1  0  0  0  0
  6 12  1  0  0  0  0
  7  3  1  0  0  0  0
  7  8  1  0  0  0  0
  8 18  1  0  0  0  0
  8 17  1  0  0  0  0
  9  2  1  0  0  0  0
 10  5  1  0  0  0  0
 13  6  1  0  0  0  0
 14  7  1  0  0  0  0
 15  7  1  0  0  0  0
 16  8  1  0  0  0  0
M  END
