1
q = -1.0, confidence = 0.0

 16 16  0  0  0  0  0  0  0  0999 V2000
   -1.5501   -0.8037   -1.4279 S   0  0  0  0  0  1  0  0  0  0  0  0
   -2.5217    0.5341    0.6952 N   0  0  0  0  0  0  0  0  0  0  0  0
   -2.8237   -0.1479   -0.4404 C   0  0  0  0  0  0  0  0  0  0  0  0
   -4.0954   -0.3721   -0.8822 N   0  0  0  0  0  0  0  0  0  0  0  0
   -5.0950    0.1895   -0.1986 C   0  0  0  0  0  0  0  0  0  0  0  0
   -4.8608    0.9988    0.9385 C   0  0  0  0  0  0  0  0  0  0  0  0
   -5.6851    1.4849    1.4821 H   0  0  0  0  0  0  0  0  0  0  0  0
   -3.5263    1.1201    1.3620 C   0  0  0  0  0  0  0  0  0  0  0  0
   -6.4981   -0.0655   -0.6960 C   0  0  0  0  0  0  0  0  0  0  0  0
   -6.9663    0.8739   -1.0598 H   0  0  0  0  0  0  0  0  0  0  0  0
   -7.1489   -0.4616    0.1114 H   0  0  0  0  0  0  0  0  0  0  0  0
   -6.4624   -0.7901   -1.5304 H   0  0  0  0  0  0  0  0  0  0  0  0
   -3.1321    1.9087    2.5851 C   0  0  0  0  0  0  0  0  0  0  0  0
   -2.6427    1.2433    3.3266 H   0  0  0  0  0  0  0  0  0  0  0  0
   -3.9980    2.4060    3.0636 H   0  0  0  0  0  0  0  0  0  0  0  0
   -2.3782    2.6707    2.2998 H   0  0  0  0  0  0  0  0  0  0  0  0
  1  3  1  0  0  0  0
  2  8  1  0  0  0  0
  3  2  2  0  0  0  0
  4  3  1  0  0  0  0
  4  5  2  0  0  0  0
  5  6  1  0  0  0  0
  6  8  2  0  0  0  0
  6  7  1  0  0  0  0
  8 13  1  0  0  0  0
  9  5  1  0  0  0  0
  9 11  1  0  0  0  0
 10  9  1  0  0  0  0
 12  9  1  0  0  0  0
 13 15  1  0  0  0  0
 13 14  1  0  0  0  0
 16 13  1  0  0  0  0
M  END
