1
q = 0.0, confidence = 0.962

 20 19  0  0  0  0  0  0  0  0999 V2000
    1.3082    0.9828   -1.7137 S   0  0  0  0  0  1  0  0  0  0  0  0
    3.8082    0.3352   -0.9518 N   0  0  0  0  0  0  0  0  0  0  0  0
    2.7258    1.9026    0.4011 N   0  0  0  0  0  0  0  0  0  0  0  0
    2.6981    1.0729   -0.6832 C   0  0  0  0  0  3  0  0  0  0  0  0
    5.1362    0.7097   -0.4873 C   0  0  0  0  0  0  0  0  0  0  0  0
    5.1515    1.7757   -0.2000 H   0  0  0  0  0  0  0  0  0  0  0  0
    5.8540    0.5591   -1.3198 H   0  0  0  0  0  0  0  0  0  0  0  0
    5.4761    0.0950    0.3734 H   0  0  0  0  0  0  0  0  0  0  0  0
    3.7641   -0.8775   -1.7575 C   0  0  0  0  0  0  0  0  0  0  0  0
    2.7224   -1.0839   -2.0536 H   0  0  0  0  0  0  0  0  0  0  0  0
    4.1485   -1.7294   -1.1593 H   0  0  0  0  0  0  0  0  0  0  0  0
    4.3840   -0.7548   -2.6710 H   0  0  0  0  0  0  0  0  0  0  0  0
    3.3408    1.5050    1.6698 C   0  0  0  0  0  0  0  0  0  0  0  0
    3.5715    0.4247    1.6542 H   0  0  0  0  0  0  0  0  0  0  0  0
    2.5938    1.6526    2.4760 H   0  0  0  0  0  0  0  0  0  0  0  0
    4.2445    2.1037    1.9140 H   0  0  0  0  0  0  0  0  0  0  0  0
    1.8005    3.0254    0.5016 C   0  0  0  0  0  0  0  0  0  0  0  0
    1.5680    3.4125   -0.5059 H   0  0  0  0  0  0  0  0  0  0  0  0
    2.2815    3.8242    1.1022 H   0  0  0  0  0  0  0  0  0  0  0  0
    0.8506    2.7197    0.9935 H   0  0  0  0  0  0  0  0  0  0  0  0
  1  4  1  0  0  0  0
  2  4  1  0  0  0  0
  2  5  1  0  0  0  0
  3 17  1  0  0  0  0
  3 13  1  0  0  0  0
  4  3  1  0  0  0  0
  5  6  1  0  0  0  0
  5  8  1  0  0  0  0
  7  5  1  0  0  0  0
  9 11  1  0  0  0  0
  9  2  1  0  0  0  0
 10  9  1  0  0  0  0
 12  9  1  0  0  0  0
 13 16  1  0  0  0  0
 13 15  1  0  0  0  0
 14 13  1  0  0  0  0
 17 20  1  0  0  0  0
 17 19  1  0  0  0  0
 18 17  1  0  0  0  0
M  END
