1
q = 0.0, confidence = 0.986

 14 15  0  0  0  0  0  0  0  0999 V2000
   -1.4539   -1.8795   -2.4541 S   0  0  0  0  0  1  0  0  0  0  0  0
   -1.7039   -2.0025    0.8962 N   0  0  0  0  0  0  0  0  0  0  0  0
   -3.5566   -2.5965    2.0259 N   0  0  0  0  0  0  0  0  0  0  0  0
   -4.1909   -2.7787    2.8074 H   0  0  0  0  0  0  0  0  0  0  0  0
   -5.0420   -3.1237    0.1505 N   0  0  0  0  0  0  0  0  0  0  0  0
   -3.9256   -2.7813   -1.9185 N   0  0  0  0  0  0  0  0  0  0  0  0
   -2.2510   -2.1568    2.0941 C   0  0  0  0  0  0  0  0  0  0  0  0
   -1.7478   -1.9670    3.0509 H   0  0  0  0  0  0  0  0  0  0  0  0
   -3.8714   -2.7227    0.6943 C   0  0  0  0  0  0  0  0  0  0  0  0
   -5.0138   -3.1364   -1.1613 C   0  0  0  0  0  3  0  0  0  0  0  0
   -5.9051   -3.4495   -1.7294 H   0  0  0  0  0  0  0  0  0  0  0  0
   -2.6996   -2.3399   -1.4188 C   0  0  0  0  0  0  0  0  0  0  0  0
   -2.6951   -2.3437    0.0075 C   0  0  0  0  0  0  0  0  0  0  0  0
   -4.0047   -2.8096   -2.9420 H   0  0  0  0  0  0  0  0  0  0  0  0
  1 12  1  0  0  0  0
  2  7  2  0  0  0  0
  3  7  1  0  0  0  0
  3  4  1  0  0  0  0
  5  9  2  0  0  0  0
  6 12  1  0  0  0  0
  6 10  1  0  0  0  0
  7  8  1  0  0  0  0
  9  3  1  0  0  0  0
 10  5  1  0  0  0  0
 11 10  1  0  0  0  0
 12 13  2  0  0  0  0
 13  9  1  0  0  0  0
 13  2  1  0  0  0  0
 14  6  1  0  0  0  0
M  END
