1
q = -1.0, confidence = 0.014

  4  3  0  0  0  0  0  0  0  0999 V2000
    0.0520   -2.3104    1.3078 S   0  0  0  0  0  1  0  0  0  0  0  0
   -0.9504   -4.4770   -0.6130 S   0  0  0  0  0  0  0  0  0  0  0  0
   -0.4195   -3.9013    0.8384 C   0  0  0  0  0  0  0  0  0  0  0  0
   -0.3457   -4.5891    1.7086 H   0  0  0  0  0  0  0  0  0  0  0  0
  2  3  2  0  0  0  0
  3  1  1  0  0  0  0
  3  4  1  0  0  0  0
M  END
