1
q = -1.0, confidence = 0.0

 13 13  0  0  0  0  0  0  0  0999 V2000
   -0.1593    0.5383   -2.0518 S   0  0  0  0  0  0  0  0  0  0  0  0
    1.1076    1.2162   -1.0290 C   0  0  0  0  0  0  0  0  0  0  0  0
    2.4596    1.0324   -1.4069 C   0  0  0  0  0  0  0  0  0  0  0  0
    2.7604    0.3032   -2.4871 F   0  0  0  0  0  0  0  0  0  0  0  0
    3.5117    1.5466   -0.6410 C   0  0  0  0  0  0  0  0  0  0  0  0
    4.7699    1.3060   -1.0133 F   0  0  0  0  0  0  0  0  0  0  0  0
    3.2595    2.2781    0.5428 C   0  0  0  0  0  0  0  0  0  0  0  0
    1.9107    2.4713    0.9249 C   0  0  0  0  0  0  0  0  0  0  0  0
    1.6306    3.1649    2.0303 F   0  0  0  0  0  0  0  0  0  0  0  0
    0.8661    1.9762    0.1396 C   0  0  0  0  0  0  0  0  0  0  0  0
   -0.3915    2.2284    0.5399 F   0  0  0  0  0  0  0  0  0  0  0  0
    4.3218    2.7999    1.3346 C   0  0  0  0  0  0  0  0  0  0  0  0
    5.1875    3.2415    1.9930 N   0  0  0  0  0  0  0  0  0  0  0  0
  1  2  1  0  0  0  0
  2 10  1  0  0  0  0
  3  2  2  0  0  0  0
  3  5  1  0  0  0  0
  4  3  1  0  0  0  0
  5  7  2  0  0  0  0
  6  5  1  0  0  0  0
  7  8  1  0  0  0  0
  7 12  1  0  0  0  0
  8  9  1  0  0  0  0
 10 11  1  0  0  0  0
 10  8  2  0  0  0  0
 12 13  3  0  0  0  0
M  END
