1
q = 0.0, confidence = 0.81

  4  3  0  0  0  0  0  0  0  0999 V2000
    1.5264   -1.1039   -0.6791 S   0  0  0  0  0  0  0  0  0  0  0  0
    2.2250   -0.2364   -1.7883 O   0  0  0  0  0  0  0  0  0  0  0  0
    2.5010   -1.3347    0.4891 O   0  0  0  0  0  0  0  0  0  0  0  0
    0.9781   -2.3528   -1.2983 O   0  0  0  0  0  0  0  0  0  0  0  0
  1  3  1  0  0  0  0
  2  1  1  0  0  0  0
  4  1  1  0  0  0  0
M  END
