1
q = 0.0, confidence = 0.988

 15 15  0  0  1  0  0  0  0  0999 V2000
   -2.0889   -1.0672    0.6389 S   0  0  0  0  0  1  0  0  0  0  0  0
   -3.1150   -0.0285   -0.2729 C   0  0  1  0  0  3  0  0  0  0  0  0
   -2.7458    1.0551   -0.9927 N   0  0  0  0  0  0  0  0  0  0  0  0
   -1.8148    1.4608   -0.8718 H   0  0  0  0  0  0  0  0  0  0  0  0
   -3.9152    1.7971   -1.4711 C   0  0  0  0  0  0  0  0  0  0  0  0
   -4.1091    2.6838   -0.8284 H   0  0  0  0  0  0  0  0  0  0  0  0
   -3.7800    2.1428   -2.5136 H   0  0  0  0  0  0  0  0  0  0  0  0
   -5.0249    0.7345   -1.3364 C   0  0  0  0  0  0  0  0  0  0  0  0
   -5.2305    0.2140   -2.2990 H   0  0  0  0  0  0  0  0  0  0  0  0
   -5.9797    1.1484   -0.9570 H   0  0  0  0  0  0  0  0  0  0  0  0
   -4.4477   -0.2143   -0.3730 N   0  0  0  0  0  0  0  0  0  0  0  0
   -5.1889   -1.3568    0.1194 C   0  0  0  0  0  0  0  0  0  0  0  0
   -4.6253   -1.8291    0.9453 H   0  0  0  0  0  0  0  0  0  0  0  0
   -6.1718   -1.0208    0.5037 H   0  0  0  0  0  0  0  0  0  0  0  0
   -5.3556   -2.1097   -0.6814 H   0  0  0  0  0  0  0  0  0  0  0  0
  2  1  1  6  0  0  0
  3  4  1  0  0  0  0
  3  2  1  0  0  0  0
  5  8  1  0  0  0  0
  5  3  1  0  0  0  0
  5  6  1  0  0  0  0
  7  5  1  0  0  0  0
  8 10  1  0  0  0  0
  8 11  1  0  0  0  0
  9  8  1  0  0  0  0
 11  2  1  0  0  0  0
 11 12  1  0  0  0  0
 12 14  1  0  0  0  0
 12 13  1  0  0  0  0
 15 12  1  0  0  0  0
M  END
