1
q = -1.0, confidence = 0.006

 12 11  0  0  0  0  0  0  0  0999 V2000
   -0.8954   -0.2898    1.7059 S   0  0  0  0  0  1  0  0  0  0  0  0
   -3.1726    0.9031    2.3182 N   0  0  0  0  0  0  0  0  0  0  0  0
   -2.4085    0.5574    1.2279 C   0  0  0  0  0  0  0  0  0  0  0  0
   -2.7489    0.8473    0.0772 O   0  0  0  0  0  0  0  0  0  0  0  0
   -4.4902    1.4946    2.1565 C   0  0  0  0  0  0  0  0  0  0  0  0
   -4.7225    2.0806    3.0710 H   0  0  0  0  0  0  0  0  0  0  0  0
   -4.4199    2.2097    1.3119 H   0  0  0  0  0  0  0  0  0  0  0  0
   -5.5913    0.4698    1.8690 C   0  0  0  0  0  0  0  0  0  0  0  0
   -5.3618   -0.0762    0.9326 H   0  0  0  0  0  0  0  0  0  0  0  0
   -6.5754    0.9679    1.7493 H   0  0  0  0  0  0  0  0  0  0  0  0
   -5.6796   -0.2705    2.6906 H   0  0  0  0  0  0  0  0  0  0  0  0
   -2.9190    0.4763    3.2104 H   0  0  0  0  0  0  0  0  0  0  0  0
  2 12  1  0  0  0  0
  3  1  1  0  0  0  0
  3  2  1  0  0  0  0
  4  3  2  0  0  0  0
  5  2  1  0  0  0  0
  5  6  1  0  0  0  0
  7  5  1  0  0  0  0
  8  5  1  0  0  0  0
  8 11  1  0  0  0  0
  9  8  1  0  0  0  0
 10  8  1  0  0  0  0
M  END
