1
q = 0.0, confidence = 0.998

 26 28  0  0  1  0  0  0  0  0999 V2000
   -1.8122    0.4283   -1.4288 S   0  0  0  0  0  0  0  0  0  0  0  0
   -5.8452    0.8892   -0.7030 O   0  0  0  0  0  0  0  0  0  0  0  0
   -3.7993    0.6790    0.4274 C   0  0  2  0  0  0  0  0  0  0  0  0
   -3.0053    1.5244   -0.5850 C   0  0  0  0  0  0  0  0  0  0  0  0
   -2.9937   -0.9839   -1.3489 C   0  0  0  0  0  0  0  0  0  0  0  0
   -4.0821   -0.7084   -0.2760 C   0  0  2  0  0  0  0  0  0  0  0  0
   -5.5027   -0.4789   -0.8891 C   0  0  0  0  0  0  0  0  0  0  0  0
   -5.2267    1.2618    0.5134 C   0  0  0  0  0  0  0  0  0  0  0  0
   -3.0869    0.5716    1.8027 C   0  0  0  0  0  0  0  0  0  0  0  0
   -2.3325   -0.7144    2.0219 C   0  0  0  0  0  0  0  0  0  0  0  0
   -2.8150   -1.8814    1.5520 C   0  0  0  0  0  0  0  0  0  0  0  0
   -4.0893   -1.8679    0.7501 C   0  0  0  0  0  0  0  0  0  0  0  0
   -2.4307    2.3547   -0.1322 H   0  0  0  0  0  0  0  0  0  0  0  0
   -3.6796    1.9028   -1.3806 H   0  0  0  0  0  0  0  0  0  0  0  0
   -3.4219   -1.0866   -2.3656 H   0  0  0  0  0  0  0  0  0  0  0  0
   -2.3702   -1.8739   -1.1354 H   0  0  0  0  0  0  0  0  0  0  0  0
   -5.5568   -0.7015   -1.9736 H   0  0  0  0  0  0  0  0  0  0  0  0
   -6.2417   -1.1341   -0.3669 H   0  0  0  0  0  0  0  0  0  0  0  0
   -5.7581    0.8241    1.3962 H   0  0  0  0  0  0  0  0  0  0  0  0
   -5.2553    2.3665    0.6030 H   0  0  0  0  0  0  0  0  0  0  0  0
   -2.4069    1.4347    1.9400 H   0  0  0  0  0  0  0  0  0  0  0  0
   -3.8644    0.6534    2.5982 H   0  0  0  0  0  0  0  0  0  0  0  0
   -1.4056   -0.6803    2.6154 H   0  0  0  0  0  0  0  0  0  0  0  0
   -2.2731   -2.8254    1.7121 H   0  0  0  0  0  0  0  0  0  0  0  0
   -4.2581   -2.8297    0.2233 H   0  0  0  0  0  0  0  0  0  0  0  0
   -4.9666   -1.7328    1.4250 H   0  0  0  0  0  0  0  0  0  0  0  0
  1  5  1  0  0  0  0
  1  4  1  0  0  0  0
  2  8  1  0  0  0  0
  3  4  1  6  0  0  0
  3  8  1  0  0  0  0
  3  9  1  0  0  0  0
  4 13  1  0  0  0  0
  5 16  1  0  0  0  0
  6  5  1  6  0  0  0
  6  3  1  0  0  0  0
  6 12  1  0  0  0  0
  7  2  1  0  0  0  0
  7 18  1  0  0  0  0
  7  6  1  0  0  0  0
  8 20  1  0  0  0  0
  8 19  1  0  0  0  0
  9 21  1  0  0  0  0
  9 10  1  0  0  0  0
  9 22  1  0  0  0  0
 10 23  1  0  0  0  0
 11 24  1  0  0  0  0
 11 10  2  0  0  0  0
 12 26  1  0  0  0  0
 12 11  1  0  0  0  0
 14  4  1  0  0  0  0
 15  5  1  0  0  0  0
 17  7  1  0  0  0  0
 25 12  1  0  0  0  0
M  END
