1
q = 0.0, confidence = 0.954

 15 15  0  0  1  0  0  0  0  0999 V2000
   -1.0390   -0.7768   -1.4566 S   0  0  0  0  0  1  0  0  0  0  0  0
   -2.2471   -1.8364   -0.8764 C   0  0  1  0  0  3  0  0  0  0  0  0
   -3.0460   -1.6681    0.1999 N   0  0  0  0  0  0  0  0  0  0  0  0
   -2.7787   -0.9783    0.9559 H   0  0  0  0  0  0  0  0  0  0  0  0
   -3.7764   -2.9105    0.5000 C   0  0  2  0  0  0  0  0  0  0  0  0
   -4.8110   -2.6659    0.8168 H   0  0  0  0  0  0  0  0  0  0  0  0
   -3.0755   -3.7293    1.5843 C   0  0  0  0  0  0  0  0  0  0  0  0
   -2.0435   -3.9853    1.2730 H   0  0  0  0  0  0  0  0  0  0  0  0
   -3.6432   -4.6577    1.7982 H   0  0  0  0  0  0  0  0  0  0  0  0
   -2.9956   -3.1394    2.5180 H   0  0  0  0  0  0  0  0  0  0  0  0
   -3.7791   -3.5865   -0.8988 C   0  0  0  0  0  0  0  0  0  0  0  0
   -3.6989   -4.6898   -0.8300 H   0  0  0  0  0  0  0  0  0  0  0  0
   -4.6990   -3.3352   -1.4761 H   0  0  0  0  0  0  0  0  0  0  0  0
   -2.5916   -2.9934   -1.5028 N   0  0  0  0  0  0  0  0  0  0  0  0
   -2.2195   -3.2293   -2.4219 H   0  0  0  0  0  0  0  0  0  0  0  0
  2  1  1  6  0  0  0
  2  3  1  0  0  0  0
  3  5  1  0  0  0  0
  3  4  1  0  0  0  0
  5  6  1  1  0  0  0
  5  7  1  0  0  0  0
  7  9  1  0  0  0  0
  7 10  1  0  0  0  0
  8  7  1  0  0  0  0
 11 12  1  0  0  0  0
 11  5  1  0  0  0  0
 13 11  1  0  0  0  0
 14 11  1  0  0  0  0
 14  2  1  0  0  0  0
 15 14  1  0  0  0  0
M  END
