1
q = 0.0, confidence = 0.946

 15 15  0  0  1  0  0  0  0  0999 V2000
    0.7397    1.4482    1.9861 S   0  0  0  0  0  1  0  0  0  0  0  0
    2.3313    1.6298    1.4306 C   0  0  2  0  0  3  0  0  0  0  0  0
    2.8738    1.1287    0.3008 N   0  0  0  0  0  0  0  0  0  0  0  0
    2.2860    0.8131   -0.4935 H   0  0  0  0  0  0  0  0  0  0  0  0
    4.2124    1.6813    0.0626 C   0  0  1  0  0  0  0  0  0  0  0  0
    4.8814    0.8754   -0.3038 H   0  0  0  0  0  0  0  0  0  0  0  0
    4.1768    2.8217   -0.9548 C   0  0  0  0  0  0  0  0  0  0  0  0
    3.5023    3.6315   -0.6121 H   0  0  0  0  0  0  0  0  0  0  0  0
    5.1931    3.2372   -1.1122 H   0  0  0  0  0  0  0  0  0  0  0  0
    3.7983    2.4353   -1.9213 H   0  0  0  0  0  0  0  0  0  0  0  0
    4.6032    2.1115    1.5005 C   0  0  0  0  0  0  0  0  0  0  0  0
    5.2232    3.0306    1.5076 H   0  0  0  0  0  0  0  0  0  0  0  0
    5.1627    1.3026    2.0259 H   0  0  0  0  0  0  0  0  0  0  0  0
    3.2932    2.3334    2.1042 N   0  0  0  0  0  0  0  0  0  0  0  0
    3.1665    2.5421    3.0939 H   0  0  0  0  0  0  0  0  0  0  0  0
  2  1  1  1  0  0  0
  2 14  1  0  0  0  0
  3  2  1  0  0  0  0
  4  3  1  0  0  0  0
  5  6  1  6  0  0  0
  5  3  1  0  0  0  0
  5 11  1  0  0  0  0
  7  8  1  0  0  0  0
  7  5  1  0  0  0  0
  9  7  1  0  0  0  0
 10  7  1  0  0  0  0
 11 12  1  0  0  0  0
 11 13  1  0  0  0  0
 11 14  1  0  0  0  0
 14 15  1  0  0  0  0
M  END
