1
q = 0.0, confidence = 1.0

 43 44  0  0  1  0  0  0  0  0999 V2000
   -1.1904    0.7091   -1.7416 S   0  0  0  0  0  1  0  0  0  0  0  0
   -2.2598    2.8480   -0.6161 N   0  0  0  0  0  0  0  0  0  0  0  0
   -1.9817    1.5347   -0.4728 C   0  0  1  0  0  3  0  0  0  0  0  0
   -2.4429    0.8400    0.7608 C   0  0  0  0  0  0  0  0  0  0  0  0
   -3.8190    0.5900    0.9221 C   0  0  0  0  0  0  0  0  0  0  0  0
   -4.5199    0.9317    0.1452 H   0  0  0  0  0  0  0  0  0  0  0  0
   -4.2923   -0.1110    2.0390 C   0  0  0  0  0  0  0  0  0  0  0  0
   -5.3683   -0.3137    2.1430 H   0  0  0  0  0  0  0  0  0  0  0  0
   -3.3854   -0.5620    3.0131 C   0  0  0  0  0  0  0  0  0  0  0  0
   -3.7495   -1.1196    3.8889 H   0  0  0  0  0  0  0  0  0  0  0  0
   -2.0170   -0.3144    2.8718 C   0  0  0  0  0  0  0  0  0  0  0  0
   -1.3012   -0.6721    3.6251 H   0  0  0  0  0  0  0  0  0  0  0  0
   -1.5146    0.3856    1.7464 C   0  0  0  0  0  0  0  0  0  0  0  0
   -0.1204    0.5891    1.5719 C   0  0  0  0  0  0  0  0  0  0  0  0
    1.0800    0.6804    1.3042 C   0  0  0  0  0  0  0  0  0  0  0  0
    2.4508    0.7405    0.9425 C   0  0  0  0  0  0  0  0  0  0  0  0
    3.3194   -0.3396    1.2892 C   0  0  0  0  0  0  0  0  0  0  0  0
    4.6650   -0.2565    0.9048 C   0  0  0  0  0  0  0  0  0  0  0  0
    5.3401   -1.0868    1.1686 H   0  0  0  0  0  0  0  0  0  0  0  0
    5.1755    0.8440    0.1878 C   0  0  0  0  0  0  0  0  0  0  0  0
    4.2937    1.8871   -0.1543 C   0  0  0  0  0  0  0  0  0  0  0  0
    4.6759    2.7509   -0.7220 H   0  0  0  0  0  0  0  0  0  0  0  0
    2.9379    1.8571    0.2025 C   0  0  0  0  0  0  0  0  0  0  0  0
   -1.9238    3.5331   -1.8592 C   0  0  0  0  0  0  0  0  0  0  0  0
   -0.8216    3.6022   -1.9845 H   0  0  0  0  0  0  0  0  0  0  0  0
   -2.3588    4.5485   -1.8423 H   0  0  0  0  0  0  0  0  0  0  0  0
   -2.3213    2.9688   -2.7267 H   0  0  0  0  0  0  0  0  0  0  0  0
   -2.7674    3.6816    0.4696 C   0  0  0  0  0  0  0  0  0  0  0  0
   -3.7614    4.1020    0.2097 H   0  0  0  0  0  0  0  0  0  0  0  0
   -2.0654    4.5222    0.6504 H   0  0  0  0  0  0  0  0  0  0  0  0
   -2.8594    3.0880    1.3942 H   0  0  0  0  0  0  0  0  0  0  0  0
    2.7816   -1.5459    2.0071 C   0  0  0  0  0  0  0  0  0  0  0  0
    3.5979   -2.2235    2.3217 H   0  0  0  0  0  0  0  0  0  0  0  0
    2.0865   -2.1193    1.3536 H   0  0  0  0  0  0  0  0  0  0  0  0
    2.1964   -1.2558    2.9038 H   0  0  0  0  0  0  0  0  0  0  0  0
    6.6254    0.8824   -0.2220 C   0  0  0  0  0  0  0  0  0  0  0  0
    7.2941    0.6509    0.6323 H   0  0  0  0  0  0  0  0  0  0  0  0
    6.9124    1.8723   -0.6264 H   0  0  0  0  0  0  0  0  0  0  0  0
    6.8369    0.1247   -1.0066 H   0  0  0  0  0  0  0  0  0  0  0  0
    1.9974    2.9627   -0.1992 C   0  0  0  0  0  0  0  0  0  0  0  0
    2.5297    3.7731   -0.7331 H   0  0  0  0  0  0  0  0  0  0  0  0
    1.4847    3.3991    0.6834 H   0  0  0  0  0  0  0  0  0  0  0  0
    1.1992    2.5670   -0.8631 H   0  0  0  0  0  0  0  0  0  0  0  0
  2  3  1  0  0  0  0
  2 28  1  0  0  0  0
  3  1  1  6  0  0  0
  3  4  1  0  0  0  0
  4  5  2  0  0  0  0
  4 13  1  0  0  0  0
  5  7  1  0  0  0  0
  6  5  1  0  0  0  0
  7  8  1  0  0  0  0
  7  9  2  0  0  0  0
  9 10  1  0  0  0  0
 11  9  1  0  0  0  0
 11 12  1  0  0  0  0
 13 11  2  0  0  0  0
 14 13  1  0  0  0  0
 15 14  3  0  0  0  0
 16 17  1  0  0  0  0
 16 15  1  0  0  0  0
 17 32  1  0  0  0  0
 18 19  1  0  0  0  0
 18 17  2  0  0  0  0
 20 18  1  0  0  0  0
 21 20  2  0  0  0  0
 21 23  1  0  0  0  0
 22 21  1  0  0  0  0
 23 16  2  0  0  0  0
 24 26  1  0  0  0  0
 24  2  1  0  0  0  0
 25 24  1  0  0  0  0
 27 24  1  0  0  0  0
 28 30  1  0  0  0  0
 28 31  1  0  0  0  0
 29 28  1  0  0  0  0
 32 33  1  0  0  0  0
 32 35  1  0  0  0  0
 34 32  1  0  0  0  0
 36 20  1  0  0  0  0
 36 37  1  0  0  0  0
 38 36  1  0  0  0  0
 39 36  1  0  0  0  0
 40 23  1  0  0  0  0
 40 42  1  0  0  0  0
 41 40  1  0  0  0  0
 43 40  1  0  0  0  0
M  END
