1
q = -1.0, confidence = 0.0

 17 16  0  0  0  0  0  0  0  0999 V2000
   -1.6964   -0.7317    1.2193 S   0  0  0  0  0  1  0  0  0  0  0  0
   -3.8796    1.0363   -0.1315 Si  0  0  0  0  0  0  0  0  0  0  0  0
   -3.0522   -0.6863   -0.0373 C   0  0  0  0  0  0  0  0  0  0  0  0
   -4.4559    1.5446    1.5929 C   0  0  0  0  0  0  0  0  0  0  0  0
   -5.3559    0.8950   -1.3109 C   0  0  0  0  0  0  0  0  0  0  0  0
   -2.6226    2.2744   -0.8070 C   0  0  0  0  0  0  0  0  0  0  0  0
   -2.6706   -0.9654   -1.0407 H   0  0  0  0  0  0  0  0  0  0  0  0
   -3.7993   -1.4507    0.2655 H   0  0  0  0  0  0  0  0  0  0  0  0
   -3.6002    1.5657    2.2980 H   0  0  0  0  0  0  0  0  0  0  0  0
   -4.9169    2.5535    1.5778 H   0  0  0  0  0  0  0  0  0  0  0  0
   -5.2071    0.8320    1.9911 H   0  0  0  0  0  0  0  0  0  0  0  0
   -6.0958    0.1542   -0.9440 H   0  0  0  0  0  0  0  0  0  0  0  0
   -5.8761    1.8706   -1.4080 H   0  0  0  0  0  0  0  0  0  0  0  0
   -5.0351    0.5826   -2.3261 H   0  0  0  0  0  0  0  0  0  0  0  0
   -2.2236    1.9458   -1.7892 H   0  0  0  0  0  0  0  0  0  0  0  0
   -3.0849    3.2733   -0.9452 H   0  0  0  0  0  0  0  0  0  0  0  0
   -1.7646    2.3839   -0.1147 H   0  0  0  0  0  0  0  0  0  0  0  0
  2  3  1  0  0  0  0
  2  4  1  0  0  0  0
  3  8  1  0  0  0  0
  3  1  1  0  0  0  0
  4 11  1  0  0  0  0
  4  9  1  0  0  0  0
  5 12  1  0  0  0  0
  5  2  1  0  0  0  0
  6  2  1  0  0  0  0
  6 17  1  0  0  0  0
  7  3  1  0  0  0  0
 10  4  1  0  0  0  0
 13  5  1  0  0  0  0
 14  5  1  0  0  0  0
 15  6  1  0  0  0  0
 16  6  1  0  0  0  0
M  END
