1
q = 0.0, confidence = 0.994

 18 19  0  0  1  0  0  0  0  0999 V2000
    0.3873    1.7000   -0.0003 S   0  0  0  0  0  1  0  0  0  0  0  0
   -1.0320   -0.9868   -0.0002 S   0  0  0  0  0  0  0  0  0  0  0  0
   -2.3013    1.2677    0.0001 N   0  0  0  0  0  0  0  0  0  0  0  0
   -1.0273    0.7629   -0.0001 C   0  0  2  0  0  3  0  0  0  0  0  0
   -2.5925    2.6935    0.0003 C   0  0  0  0  0  0  0  0  0  0  0  0
   -1.6383    3.2505    0.0015 H   0  0  0  0  0  0  0  0  0  0  0  0
   -3.1748    2.9628    0.9039 H   0  0  0  0  0  0  0  0  0  0  0  0
   -3.1730    2.9635   -0.9043 H   0  0  0  0  0  0  0  0  0  0  0  0
   -3.3132    0.3022    0.0001 C   0  0  0  0  0  0  0  0  0  0  0  0
   -4.6993    0.5303    0.0001 C   0  0  0  0  0  0  0  0  0  0  0  0
   -5.1064    1.5508    0.0002 H   0  0  0  0  0  0  0  0  0  0  0  0
   -5.5518   -0.5832    0.0001 C   0  0  0  0  0  0  0  0  0  0  0  0
   -6.6401   -0.4252    0.0002 H   0  0  0  0  0  0  0  0  0  0  0  0
   -5.0380   -1.8945    0.0000 C   0  0  0  0  0  0  0  0  0  0  0  0
   -5.7277   -2.7510   -0.0000 H   0  0  0  0  0  0  0  0  0  0  0  0
   -3.6537   -2.1244   -0.0001 C   0  0  0  0  0  0  0  0  0  0  0  0
   -3.2490   -3.1466   -0.0002 H   0  0  0  0  0  0  0  0  0  0  0  0
   -2.7970   -1.0160   -0.0001 C   0  0  0  0  0  0  0  0  0  0  0  0
  2 18  1  0  0  0  0
  2  4  1  0  0  0  0
  3  5  1  0  0  0  0
  4  1  1  6  0  0  0
  4  3  1  0  0  0  0
  5  6  1  0  0  0  0
  5  7  1  0  0  0  0
  8  5  1  0  0  0  0
  9 10  1  0  0  0  0
  9  3  1  0  0  0  0
 10 11  1  0  0  0  0
 12 10  2  0  0  0  0
 12 13  1  0  0  0  0
 14 12  1  0  0  0  0
 15 14  1  0  0  0  0
 16 18  1  0  0  0  0
 16 14  2  0  0  0  0
 17 16  1  0  0  0  0
 18  9  2  0  0  0  0
M  END
