1
q = 0.0, confidence = 0.972

  6  5  0  0  0  0  0  0  0  0999 V2000
   -0.2440   -2.0759    1.5855 S   0  0  0  0  0  0  0  0  0  0  0  0
    1.0144   -3.3406    2.0024 C   0  0  0  0  0  0  0  0  0  0  0  0
    0.8763   -4.1750    1.2941 H   0  0  0  0  0  0  0  0  0  0  0  0
    0.8353   -3.6589    3.0468 H   0  0  0  0  0  0  0  0  0  0  0  0
    2.0287   -2.9263    1.8712 H   0  0  0  0  0  0  0  0  0  0  0  0
    0.2039   -1.1679    2.5127 H   0  0  0  0  0  0  0  0  0  0  0  0
  1  2  1  0  0  0  0
  1  6  1  0  0  0  0
  2  4  1  0  0  0  0
  3  2  1  0  0  0  0
  5  2  1  0  0  0  0
M  END
