2
q = 0.0, confidence = 0.986

 30 33  0  0  0  0  0  0  0  0999 V2000
    1.0567    2.3902    0.1553 N   0  0  0  0  0  0  0  0  0  0  0  0
    3.3837   -1.5187    1.0281 S   0  0  0  0  0  1  0  0  0  0  0  0
    0.6337    2.6739    1.4136 C   0  0  0  0  0  3  0  0  0  0  0  0
    0.9508    1.9623    2.1897 H   0  0  0  0  0  0  0  0  0  0  0  0
   -0.1491    3.7936    1.6805 C   0  0  0  0  0  0  0  0  0  0  0  0
   -0.4660    3.9941    2.7129 H   0  0  0  0  0  0  0  0  0  0  0  0
   -0.5144    4.6393    0.6206 C   0  0  0  0  0  0  0  0  0  0  0  0
   -1.1362    5.5278    0.8043 H   0  0  0  0  0  0  0  0  0  0  0  0
   -0.0817    4.3282   -0.6742 C   0  0  0  0  0  0  0  0  0  0  0  0
   -0.3514    4.9516   -1.5363 H   0  0  0  0  0  0  0  0  0  0  0  0
    0.7068    3.1946   -0.8782 C   0  0  0  0  0  0  0  0  0  0  0  0
    1.1042    2.9023   -1.8579 H   0  0  0  0  0  0  0  0  0  0  0  0
    3.6053   -0.3780   -1.8686 B   0  0  1  0  0  0  0  0  0  0  0  0
    3.9015   -0.6362   -3.0140 H   0  0  0  0  0  0  0  0  0  0  0  0
    4.5018   -1.1921   -0.5795 B   0  0  1  0  0  0  0  0  0  0  0  0
    5.3336   -2.0475   -0.7646 H   0  0  0  0  0  0  0  0  0  0  0  0
    2.6796   -1.5302   -0.9102 B   0  0  0  0  0  0  0  0  0  0  0  0
    2.3513   -2.6361   -1.2811 H   0  0  0  0  0  0  0  0  0  0  0  0
    1.9195    0.0245   -1.4415 B   0  0  2  0  0  0  0  0  0  0  0  0
    1.1417    0.0667   -2.3674 H   0  0  0  0  0  0  0  0  0  0  0  0
    3.1820    1.2840   -1.3584 B   0  0  0  0  0  0  0  0  0  0  0  0
    3.2014    2.2162   -2.1368 H   0  0  0  0  0  0  0  0  0  0  0  0
    4.7015    0.5546   -0.7871 B   0  0  1  0  0  0  0  0  0  0  0  0
    5.7568    1.0394   -1.1322 H   0  0  0  0  0  0  0  0  0  0  0  0
    1.9715    1.1544   -0.0789 B   0  0  0  0  0  0  0  0  0  0  0  0
    2.7853    1.0146    1.0673 H   0  0  0  0  0  0  0  0  0  0  0  0
    3.7308    1.5186    0.3330 B   0  0  0  0  0  0  0  0  0  0  0  0
    4.0387    2.6167    0.7452 H   0  0  0  0  0  0  0  0  0  0  0  0
    4.5991   -0.0346    0.8454 B   0  0  1  0  0  0  0  0  0  0  0  0
    5.5012   -0.0622    1.6498 H   0  0  0  0  0  0  0  0  0  0  0  0
  1  3  1  0  0  0  0
  3  5  1  0  0  0  0
  3  4  1  0  0  0  0
  5  6  1  0  0  0  0
  7  8  1  0  0  0  0
  7  5  2  0  0  0  0
  9  7  1  0  0  0  0
 10  9  1  0  0  0  0
 11  9  2  0  0  0  0
 11  1  1  0  0  0  0
 12 11  1  0  0  0  0
 13 14  1  6  0  0  0
 13 19  1  0  0  0  0
 13 17  1  0  0  0  0
 13 15  1  0  0  0  0
 15 16  1  6  0  0  0
 15 29  1  0  0  0  0
 17  2  1  0  0  0  0
 18 17  1  0  0  0  0
 19 20  1  6  0  0  0
 19 21  1  0  0  0  0
 19 25  1  0  0  0  0
 21 25  1  0  0  0  0
 22 21  1  0  0  0  0
 23 24  1  6  0  0  0
 23 15  1  0  0  0  0
 23 27  1  0  0  0  0
 23 29  1  0  0  0  0
 25  1  1  0  0  0  0
 27 28  1  0  0  0  0
 27 29  1  0  0  0  0
 27 26  1  0  0  0  0
 29 30  1  1  0  0  0
M  END
