1
q = 0.0, confidence = 0.99

 11 11  0  0  1  0  0  0  0  0999 V2000
    1.6697   -2.8889   -0.7078 S   0  0  0  0  0  1  0  0  0  0  0  0
    4.6180   -2.1945   -0.2231 S   0  0  0  0  0  0  0  0  0  0  0  0
    3.1287   -0.7966   -1.7039 N   0  0  0  0  0  0  0  0  0  0  0  0
    4.2953   -0.1232   -1.7283 N   0  0  0  0  0  0  0  0  0  0  0  0
    3.0297   -1.9273   -0.9553 C   0  0  2  0  0  3  0  0  0  0  0  0
    5.1986   -0.7142   -0.9942 C   0  0  0  0  0  0  0  0  0  0  0  0
    6.5793   -0.1913   -0.7934 C   0  0  0  0  0  0  0  0  0  0  0  0
    2.3153   -0.4439   -2.3114 H   0  0  0  0  0  0  0  0  0  0  0  0
    6.7036    0.7191   -1.4086 H   0  0  0  0  0  0  0  0  0  0  0  0
    7.3459   -0.9360   -1.0886 H   0  0  0  0  0  0  0  0  0  0  0  0
    6.7482    0.0692    0.2719 H   0  0  0  0  0  0  0  0  0  0  0  0
  3  5  1  0  0  0  0
  4  3  1  0  0  0  0
  4  6  2  0  0  0  0
  5  1  1  1  0  0  0
  5  2  1  0  0  0  0
  6  7  1  0  0  0  0
  6  2  1  0  0  0  0
  7 11  1  0  0  0  0
  8  3  1  0  0  0  0
  9  7  1  0  0  0  0
 10  7  1  0  0  0  0
M  END
