1
q = -1.0, confidence = 0.0

 23 23  0  0  0  0  0  0  0  0999 V2000
   -2.0538   -0.9491   -0.1380 S   0  0  0  0  0  1  0  0  0  0  0  0
   -1.0354    2.0154   -0.0793 O   0  0  0  0  0  0  0  0  0  0  0  0
   -3.0676    2.9489   -0.0330 O   0  0  0  0  0  0  0  0  0  0  0  0
   -2.4477    3.7078   -0.0240 H   0  0  0  0  0  0  0  0  0  0  0  0
   -6.9636    1.3543    0.1017 O   0  0  0  0  0  0  0  0  0  0  0  0
   -2.2546    1.8567   -0.0633 C   0  0  0  0  0  0  0  0  0  0  0  0
   -2.9800    0.5520   -0.0725 C   0  0  0  0  0  0  0  0  0  0  0  0
   -4.3622    0.6097   -0.0332 C   0  0  0  0  0  0  0  0  0  0  0  0
   -4.7717    1.6272    0.0021 H   0  0  0  0  0  0  0  0  0  0  0  0
   -5.3834   -0.4189   -0.0252 C   0  0  0  0  0  0  0  0  0  0  0  0
   -6.7565    0.0083    0.0469 C   0  0  0  0  0  0  0  0  0  0  0  0
   -7.8041   -0.9281    0.0596 C   0  0  0  0  0  0  0  0  0  0  0  0
   -8.8485   -0.5943    0.1150 H   0  0  0  0  0  0  0  0  0  0  0  0
   -7.5208   -2.3031    0.0016 C   0  0  0  0  0  0  0  0  0  0  0  0
   -8.3514   -3.0255    0.0123 H   0  0  0  0  0  0  0  0  0  0  0  0
   -6.1933   -2.7461   -0.0696 C   0  0  0  0  0  0  0  0  0  0  0  0
   -5.9676   -3.8218   -0.1160 H   0  0  0  0  0  0  0  0  0  0  0  0
   -5.1468   -1.8159   -0.0829 C   0  0  0  0  0  0  0  0  0  0  0  0
   -4.1069   -2.1631   -0.1398 H   0  0  0  0  0  0  0  0  0  0  0  0
   -8.2865    1.8432    0.1735 C   0  0  0  0  0  0  0  0  0  0  0  0
   -8.8875    1.5496   -0.7167 H   0  0  0  0  0  0  0  0  0  0  0  0
   -8.2106    2.9459    0.2080 H   0  0  0  0  0  0  0  0  0  0  0  0
   -8.8120    1.4880    1.0886 H   0  0  0  0  0  0  0  0  0  0  0  0
  1  7  1  0  0  0  0
  2  6  2  0  0  0  0
  3  4  1  0  0  0  0
  5 20  1  0  0  0  0
  6  3  1  0  0  0  0
  7  6  1  0  0  0  0
  7  8  2  0  0  0  0
  8 10  1  0  0  0  0
  8  9  1  0  0  0  0
 10 11  1  0  0  0  0
 11 12  2  0  0  0  0
 11  5  1  0  0  0  0
 12 13  1  0  0  0  0
 14 15  1  0  0  0  0
 14 12  1  0  0  0  0
 16 14  2  0  0  0  0
 17 16  1  0  0  0  0
 18 16  1  0  0  0  0
 18 10  2  0  0  0  0
 19 18  1  0  0  0  0
 20 22  1  0  0  0  0
 20 23  1  0  0  0  0
 21 20  1  0  0  0  0
M  END
