1
q = 0.0, confidence = 0.998

 17 16  0  0  0  0  0  0  0  0999 V2000
   -0.1768    2.1556    0.0004 S   0  0  0  0  0  1  0  0  0  0  0  0
   -1.8610    1.8809    0.0000 C   0  0  0  0  0  0  0  0  0  0  0  0
   -2.7409    2.8969   -0.0002 N   0  0  0  0  0  4  0  0  0  0  0  0
   -2.3862    0.6248   -0.0000 N   0  0  0  0  0  0  0  0  0  0  0  0
   -3.7353    0.4586    0.0002 N   0  0  0  0  0  0  0  0  0  0  0  0
   -4.2108   -0.7500   -0.0000 C   0  0  0  0  0  0  0  0  0  0  0  0
   -3.3526   -1.9891   -0.0007 C   0  0  0  0  0  0  0  0  0  0  0  0
   -5.7026   -0.8984    0.0005 C   0  0  0  0  0  0  0  0  0  0  0  0
   -2.4053    3.8570    0.0004 H   0  0  0  0  0  0  0  0  0  0  0  0
   -3.7370    2.6563    0.0003 H   0  0  0  0  0  0  0  0  0  0  0  0
   -1.7000   -0.1492    0.0001 H   0  0  0  0  0  0  0  0  0  0  0  0
   -2.6933   -2.0226   -0.8946 H   0  0  0  0  0  0  0  0  0  0  0  0
   -3.9700   -2.9052   -0.0021 H   0  0  0  0  0  0  0  0  0  0  0  0
   -2.6947   -2.0245    0.8943 H   0  0  0  0  0  0  0  0  0  0  0  0
   -6.0383   -1.4729   -0.8895 H   0  0  0  0  0  0  0  0  0  0  0  0
   -6.1970    0.0900    0.0011 H   0  0  0  0  0  0  0  0  0  0  0  0
   -6.0376   -1.4737    0.8902 H   0  0  0  0  0  0  0  0  0  0  0  0
  2  1  1  0  0  0  0
  3  2  2  0  0  0  0
  3 10  1  0  0  0  0
  3  9  1  0  0  0  0
  4  2  1  0  0  0  0
  4 11  1  0  0  0  0
  4  5  1  0  0  0  0
  6  5  2  0  0  0  0
  6  8  1  0  0  0  0
  7  6  1  0  0  0  0
  7 14  1  0  0  0  0
  8 16  1  0  0  0  0
  8 17  1  0  0  0  0
 12  7  1  0  0  0  0
 13  7  1  0  0  0  0
 15  8  1  0  0  0  0
M  END
