1
q = 0.0, confidence = 0.996

 24 24  0  0  0  0  0  0  0  0999 V2000
    1.6895   -2.4820    0.0126 S   0  0  0  0  0  1  0  0  0  0  0  0
    3.0821   -1.4269    0.0107 C   0  0  0  0  0  0  0  0  0  0  0  0
    4.3681   -2.0390    0.0077 C   0  0  0  0  0  0  0  0  0  0  0  0
    5.5366   -1.2813    0.0024 C   0  0  0  0  0  0  0  0  0  0  0  0
    5.4667    0.1259    0.0002 C   0  0  0  0  0  0  0  0  0  0  0  0
    4.2132    0.7596    0.0053 C   0  0  0  0  0  0  0  0  0  0  0  0
    3.0443   -0.0078    0.0110 C   0  0  0  0  0  0  0  0  0  0  0  0
    6.7577    0.9083   -0.0091 N   0  0  0  0  0  4  0  0  0  0  0  0
    7.5660    0.5671    1.2209 C   0  0  0  0  0  0  0  0  0  0  0  0
    7.5501    0.5629   -1.2484 C   0  0  0  0  0  0  0  0  0  0  0  0
    6.5293    2.3927   -0.0103 C   0  0  0  0  0  0  0  0  0  0  0  0
    4.4368   -3.1367    0.0086 H   0  0  0  0  0  0  0  0  0  0  0  0
    6.4996   -1.8137   -0.0007 H   0  0  0  0  0  0  0  0  0  0  0  0
    4.1067    1.8514    0.0041 H   0  0  0  0  0  0  0  0  0  0  0  0
    2.0691    0.5022    0.0146 H   0  0  0  0  0  0  0  0  0  0  0  0
    8.5086    1.1449    1.2053 H   0  0  0  0  0  0  0  0  0  0  0  0
    7.7845   -0.5133    1.2233 H   0  0  0  0  0  0  0  0  0  0  0  0
    6.9653    0.8233    2.1109 H   0  0  0  0  0  0  0  0  0  0  0  0
    6.9380    0.8163   -2.1314 H   0  0  0  0  0  0  0  0  0  0  0  0
    7.7683   -0.5175   -1.2500 H   0  0  0  0  0  0  0  0  0  0  0  0
    8.4929    1.1407   -1.2469 H   0  0  0  0  0  0  0  0  0  0  0  0
    5.9604    2.6733   -0.9128 H   0  0  0  0  0  0  0  0  0  0  0  0
    7.5144    2.8912   -0.0175 H   0  0  0  0  0  0  0  0  0  0  0  0
    5.9720    2.6764    0.8983 H   0  0  0  0  0  0  0  0  0  0  0  0
  2  7  1  0  0  0  0
  2  1  1  0  0  0  0
  3 12  1  0  0  0  0
  3  2  2  0  0  0  0
  4  3  1  0  0  0  0
  5  4  2  0  0  0  0
  5  6  1  0  0  0  0
  6  7  2  0  0  0  0
  7 15  1  0  0  0  0
  8  5  1  0  0  0  0
  8  9  1  0  0  0  0
  9 17  1  0  0  0  0
  9 18  1  0  0  0  0
 10 21  1  0  0  0  0
 10  8  1  0  0  0  0
 11  8  1  0  0  0  0
 11 24  1  0  0  0  0
 13  4  1  0  0  0  0
 14  6  1  0  0  0  0
 16  9  1  0  0  0  0
 19 10  1  0  0  0  0
 20 10  1  0  0  0  0
 22 11  1  0  0  0  0
 23 11  1  0  0  0  0
M  END
