1
q = -1.0, confidence = 0.0

 20 20  0  0  0  0  0  0  0  0999 V2000
   -1.6768   -2.9434    0.3822 S   0  0  0  0  0  1  0  0  0  0  0  0
   -6.0073    1.2757   -0.0899 N   0  0  0  0  0  0  0  0  0  0  0  0
   -5.9314    2.4753    0.7111 C   0  0  0  0  0  0  0  0  0  0  0  0
   -6.9218    1.2274   -1.2089 C   0  0  0  0  0  0  0  0  0  0  0  0
   -2.9524   -1.6848    0.2686 C   0  0  0  0  0  0  0  0  0  0  0  0
   -3.0231   -0.5886    1.1562 C   0  0  0  0  0  0  0  0  0  0  0  0
   -4.0107    0.3950    1.0330 C   0  0  0  0  0  0  0  0  0  0  0  0
   -5.0128    0.3097    0.0271 C   0  0  0  0  0  0  0  0  0  0  0  0
   -4.9500   -0.8052   -0.8529 C   0  0  0  0  0  0  0  0  0  0  0  0
   -3.9435   -1.7701   -0.7313 C   0  0  0  0  0  0  0  0  0  0  0  0
   -5.9376    2.2453    1.7994 H   0  0  0  0  0  0  0  0  0  0  0  0
   -5.0121    3.0801    0.5087 H   0  0  0  0  0  0  0  0  0  0  0  0
   -6.8099    3.1135    0.5025 H   0  0  0  0  0  0  0  0  0  0  0  0
   -7.4822    0.2672   -1.2361 H   0  0  0  0  0  0  0  0  0  0  0  0
   -7.6644    2.0409   -1.1115 H   0  0  0  0  0  0  0  0  0  0  0  0
   -6.4130    1.3411   -2.1971 H   0  0  0  0  0  0  0  0  0  0  0  0
   -2.2719   -0.4985    1.9557 H   0  0  0  0  0  0  0  0  0  0  0  0
   -4.0038    1.2319    1.7440 H   0  0  0  0  0  0  0  0  0  0  0  0
   -5.6887   -0.9202   -1.6569 H   0  0  0  0  0  0  0  0  0  0  0  0
   -3.9090   -2.6084   -1.4434 H   0  0  0  0  0  0  0  0  0  0  0  0
  2  8  1  0  0  0  0
  2  3  1  0  0  0  0
  3 11  1  0  0  0  0
  4 15  1  0  0  0  0
  4  2  1  0  0  0  0
  5  1  1  0  0  0  0
  5  6  1  0  0  0  0
  6 17  1  0  0  0  0
  7  6  2  0  0  0  0
  7 18  1  0  0  0  0
  8  7  1  0  0  0  0
  9 10  1  0  0  0  0
  9  8  2  0  0  0  0
 10  5  2  0  0  0  0
 12  3  1  0  0  0  0
 13  3  1  0  0  0  0
 14  4  1  0  0  0  0
 16  4  1  0  0  0  0
 19  9  1  0  0  0  0
 20 10  1  0  0  0  0
M  END
