1
q = -1.0, confidence = 0.0

 14 15  0  0  0  0  0  0  0  0999 V2000
    2.8118   -2.2476   -0.0230 S   0  0  0  0  0  1  0  0  0  0  0  0
    3.3679    0.4677   -0.0069 N   0  0  0  0  0  0  0  0  0  0  0  0
    5.1362   -0.9641   -0.0537 O   0  0  0  0  0  0  0  0  0  0  0  0
    3.7612   -0.7893   -0.0263 C   0  0  0  0  0  0  0  0  0  0  0  0
    4.5455    1.2072   -0.0217 C   0  0  0  0  0  0  0  0  0  0  0  0
    5.6438    0.3123   -0.0509 C   0  0  0  0  0  0  0  0  0  0  0  0
    6.9762    0.7184   -0.0719 C   0  0  0  0  0  0  0  0  0  0  0  0
    7.8024   -0.0057   -0.0943 H   0  0  0  0  0  0  0  0  0  0  0  0
    7.1951    2.1091   -0.0626 C   0  0  0  0  0  0  0  0  0  0  0  0
    8.2274    2.4895   -0.0782 H   0  0  0  0  0  0  0  0  0  0  0  0
    6.1195    3.0243   -0.0337 C   0  0  0  0  0  0  0  0  0  0  0  0
    6.3374    4.1031   -0.0274 H   0  0  0  0  0  0  0  0  0  0  0  0
    4.7831    2.5930   -0.0128 C   0  0  0  0  0  0  0  0  0  0  0  0
    3.9453    3.3046    0.0098 H   0  0  0  0  0  0  0  0  0  0  0  0
  3  6  1  0  0  0  0
  3  4  1  0  0  0  0
  4  1  1  0  0  0  0
  4  2  2  0  0  0  0
  5 13  1  0  0  0  0
  5  2  1  0  0  0  0
  6  5  2  0  0  0  0
  7  9  2  0  0  0  0
  7  6  1  0  0  0  0
  8  7  1  0  0  0  0
  9 11  1  0  0  0  0
 10  9  1  0  0  0  0
 11 12  1  0  0  0  0
 11 13  2  0  0  0  0
 13 14  1  0  0  0  0
M  END
