1
q = -1.0, confidence = 0.0

 19 19  0  0  0  0  0  0  0  0999 V2000
    1.0553   -0.6318    1.2571 S   0  0  0  0  0  1  0  0  0  0  0  0
    2.7287   -0.2504    0.7762 C   0  0  0  0  0  0  0  0  0  0  0  0
    3.1503    1.0417    0.3933 C   0  0  0  0  0  0  0  0  0  0  0  0
    4.4886    1.2753    0.0700 C   0  0  0  0  0  0  0  0  0  0  0  0
    5.4462    0.2373    0.1244 C   0  0  0  0  0  0  0  0  0  0  0  0
    6.7734    0.5495   -0.2193 N   0  0  0  0  0  0  0  0  0  0  0  0
    7.8846   -0.2766   -0.2483 C   0  0  0  0  0  0  0  0  0  0  0  0
    7.8630   -1.4692    0.0395 O   0  0  0  0  0  0  0  0  0  0  0  0
    9.1705    0.4218   -0.6743 C   0  0  0  0  0  0  0  0  0  0  0  0
    5.0312   -1.0556    0.5158 C   0  0  0  0  0  0  0  0  0  0  0  0
    3.6876   -1.2859    0.8300 C   0  0  0  0  0  0  0  0  0  0  0  0
    2.4248    1.8665    0.3440 H   0  0  0  0  0  0  0  0  0  0  0  0
    4.7997    2.2883   -0.2344 H   0  0  0  0  0  0  0  0  0  0  0  0
    9.5764   -0.1000   -1.5633 H   0  0  0  0  0  0  0  0  0  0  0  0
    9.0581    1.4983   -0.9090 H   0  0  0  0  0  0  0  0  0  0  0  0
    9.9188    0.3057    0.1344 H   0  0  0  0  0  0  0  0  0  0  0  0
    5.7738   -1.8607    0.5595 H   0  0  0  0  0  0  0  0  0  0  0  0
    3.3713   -2.2965    1.1305 H   0  0  0  0  0  0  0  0  0  0  0  0
    6.9291    1.5230   -0.4834 H   0  0  0  0  0  0  0  0  0  0  0  0
  2 11  1  0  0  0  0
  2  1  1  0  0  0  0
  3  2  2  0  0  0  0
  4  5  2  0  0  0  0
  4  3  1  0  0  0  0
  5 10  1  0  0  0  0
  6  5  1  0  0  0  0
  7  6  1  0  0  0  0
  7  8  2  0  0  0  0
  9  7  1  0  0  0  0
  9 16  1  0  0  0  0
 10 17  1  0  0  0  0
 10 11  2  0  0  0  0
 11 18  1  0  0  0  0
 12  3  1  0  0  0  0
 13  4  1  0  0  0  0
 14  9  1  0  0  0  0
 15  9  1  0  0  0  0
 19  6  1  0  0  0  0
M  END
