2
q = 0.0, confidence = 0.998

 18 18  0  0  1  0  0  0  0  0999 V2000
    1.0540    1.4529    0.3525 S   0  0  0  0  0  0  0  0  0  0  0  0
    3.6130   -0.1779   -0.1068 S   0  0  0  0  0  1  0  0  0  0  0  0
   -1.5088    2.1418    0.1183 O   0  0  0  0  0  0  0  0  0  0  0  0
   -2.4091    4.1976   -0.0887 O   0  0  0  0  0  0  0  0  0  0  0  0
    3.2847    2.5206   -0.2006 N   0  0  0  0  0  0  0  0  0  0  0  0
    4.2744    2.6259   -0.4472 H   0  0  0  0  0  0  0  0  0  0  0  0
   -3.2321    3.6395   -0.1733 H   0  0  0  0  0  0  0  0  0  0  0  0
    2.7475    1.2933    0.0120 C   0  0  1  0  0  3  0  0  0  0  0  0
    2.4163    3.6099   -0.1191 C   0  0  0  0  0  0  0  0  0  0  0  0
    1.1328    3.2116    0.1715 C   0  0  0  0  0  0  0  0  0  0  0  0
   -0.0756    4.0763    0.3644 C   0  0  0  0  0  0  0  0  0  0  0  0
   -0.0259    4.9834   -0.2705 H   0  0  0  0  0  0  0  0  0  0  0  0
   -0.1345    4.4509    1.4133 H   0  0  0  0  0  0  0  0  0  0  0  0
   -1.3932    3.3630    0.1073 C   0  0  0  0  0  0  0  0  0  0  0  0
    2.9480    4.9897   -0.3319 C   0  0  0  0  0  0  0  0  0  0  0  0
    3.6348    5.2876    0.4880 H   0  0  0  0  0  0  0  0  0  0  0  0
    2.1281    5.7289   -0.3644 H   0  0  0  0  0  0  0  0  0  0  0  0
    3.5093    5.0630   -1.2862 H   0  0  0  0  0  0  0  0  0  0  0  0
  4 14  1  0  0  0  0
  5  9  1  0  0  0  0
  5  8  1  0  0  0  0
  6  5  1  0  0  0  0
  7  4  1  0  0  0  0
  8  2  1  6  0  0  0
  8  1  1  0  0  0  0
  9 10  2  0  0  0  0
 10  1  1  0  0  0  0
 10 11  1  0  0  0  0
 11 13  1  0  0  0  0
 12 11  1  0  0  0  0
 14  3  2  0  0  0  0
 14 11  1  0  0  0  0
 15  9  1  0  0  0  0
 15 16  1  0  0  0  0
 17 15  1  0  0  0  0
 18 15  1  0  0  0  0
M  END
