1
q = 0.0, confidence = 0.994

 28 28  0  0  1  0  0  0  0  0999 V2000
   -1.9180   -2.4572   -0.3934 S   0  0  0  0  0  1  0  0  0  0  0  0
   -6.2638    2.7435   -0.1659 O   0  0  0  0  0  0  0  0  0  0  0  0
   -7.6002    0.9039   -0.1745 O   0  0  0  0  0  0  0  0  0  0  0  0
   -2.9907   -0.0378    0.1445 N   0  0  0  0  0  0  0  0  0  0  0  0
   -1.9931    0.2575    0.2604 H   0  0  0  0  0  0  0  0  0  0  0  0
   -4.4772   -1.7096   -0.4083 N   0  0  0  0  0  0  0  0  0  0  0  0
   -4.6118   -2.6912   -0.6602 H   0  0  0  0  0  0  0  0  0  0  0  0
   -3.1965   -1.3434   -0.1933 C   0  0  1  0  0  3  0  0  0  0  0  0
   -3.9802    0.9355    0.1011 C   0  0  0  0  0  0  0  0  0  0  0  0
   -5.2945    0.5395   -0.0082 C   0  0  0  0  0  0  0  0  0  0  0  0
   -5.6308   -0.9405    0.0831 C   0  0  2  0  0  0  0  0  0  0  0  0
   -6.4769   -1.1519   -0.6005 H   0  0  0  0  0  0  0  0  0  0  0  0
   -3.4776    2.3484    0.1477 C   0  0  0  0  0  0  0  0  0  0  0  0
   -4.0012    2.9272    0.9312 H   0  0  0  0  0  0  0  0  0  0  0  0
   -3.7104    2.8674   -0.8031 H   0  0  0  0  0  0  0  0  0  0  0  0
   -2.3839    2.3651    0.3152 H   0  0  0  0  0  0  0  0  0  0  0  0
   -6.0273   -1.3663    1.5059 C   0  0  0  0  0  0  0  0  0  0  0  0
   -6.2606   -2.4505    1.5495 H   0  0  0  0  0  0  0  0  0  0  0  0
   -6.9268   -0.8042    1.8230 H   0  0  0  0  0  0  0  0  0  0  0  0
   -5.2061   -1.1534    2.2193 H   0  0  0  0  0  0  0  0  0  0  0  0
   -6.3770    1.5245   -0.1224 C   0  0  0  0  0  0  0  0  0  0  0  0
   -8.7354    1.7792   -0.2974 C   0  0  0  0  0  0  0  0  0  0  0  0
   -8.6286    2.3825   -1.2244 H   0  0  0  0  0  0  0  0  0  0  0  0
   -8.7297    2.5007    0.5473 H   0  0  0  0  0  0  0  0  0  0  0  0
   -9.9858    0.9235   -0.3129 C   0  0  0  0  0  0  0  0  0  0  0  0
  -10.8843    1.5643   -0.4113 H   0  0  0  0  0  0  0  0  0  0  0  0
  -10.0807    0.3380    0.6234 H   0  0  0  0  0  0  0  0  0  0  0  0
   -9.9730    0.2140   -1.1643 H   0  0  0  0  0  0  0  0  0  0  0  0
  2 21  2  0  0  0  0
  3 21  1  0  0  0  0
  4  5  1  0  0  0  0
  6  8  1  0  0  0  0
  6 11  1  0  0  0  0
  7  6  1  0  0  0  0
  8  1  1  6  0  0  0
  8  4  1  0  0  0  0
  9  4  1  0  0  0  0
  9 13  1  0  0  0  0
 10 11  1  0  0  0  0
 10  9  2  0  0  0  0
 11 12  1  6  0  0  0
 11 17  1  0  0  0  0
 13 16  1  0  0  0  0
 13 14  1  0  0  0  0
 15 13  1  0  0  0  0
 17 18  1  0  0  0  0
 17 19  1  0  0  0  0
 17 20  1  0  0  0  0
 21 10  1  0  0  0  0
 22  3  1  0  0  0  0
 22 24  1  0  0  0  0
 23 22  1  0  0  0  0
 25 22  1  0  0  0  0
 25 27  1  0  0  0  0
 26 25  1  0  0  0  0
 28 25  1  0  0  0  0
M  END
