1
q = 0.0, confidence = 0.976

 14 14  0  0  1  0  0  0  0  0999 V2000
    2.0749    1.1217   -0.7983 S   0  0  0  0  0  1  0  0  0  0  0  0
    6.7779    1.1573    0.5653 O   0  0  0  0  0  0  0  0  0  0  0  0
    3.3470    0.3121    0.0059 C   0  0  2  0  0  3  0  0  0  0  0  0
    3.3015   -0.9259    0.4942 N   0  0  0  0  0  0  0  0  0  0  0  0
    2.4577   -1.4974    0.2308 H   0  0  0  0  0  0  0  0  0  0  0  0
    4.3906   -1.4895    1.2785 C   0  0  0  0  0  0  0  0  0  0  0  0
    4.2919   -2.5915    1.2593 H   0  0  0  0  0  0  0  0  0  0  0  0
    4.2945   -1.1699    2.3417 H   0  0  0  0  0  0  0  0  0  0  0  0
    5.7381   -1.0423    0.7118 C   0  0  0  0  0  0  0  0  0  0  0  0
    6.5822   -1.3184    1.3704 H   0  0  0  0  0  0  0  0  0  0  0  0
    5.9173   -1.5197   -0.2767 H   0  0  0  0  0  0  0  0  0  0  0  0
    5.7819    0.4615    0.4970 C   0  0  0  0  0  0  0  0  0  0  0  0
    4.5334    1.0132    0.1622 N   0  0  0  0  0  0  0  0  0  0  0  0
    4.5264    2.0086   -0.0829 H   0  0  0  0  0  0  0  0  0  0  0  0
  3  1  1  1  0  0  0
  3 13  1  0  0  0  0
  3  4  1  0  0  0  0
  4  6  1  0  0  0  0
  5  4  1  0  0  0  0
  6  8  1  0  0  0  0
  7  6  1  0  0  0  0
  9  6  1  0  0  0  0
  9 10  1  0  0  0  0
 11  9  1  0  0  0  0
 12  2  2  0  0  0  0
 12  9  1  0  0  0  0
 13 12  1  0  0  0  0
 14 13  1  0  0  0  0
M  END
