1
q = 0.0, confidence = 0.996

 20 20  0  0  0  0  0  0  0  0999 V2000
    0.7091    0.0636    1.3664 S   0  0  1  0  0  3  0  0  0  0  0  0
    0.4095    1.3359    2.1280 O   0  0  0  0  0  1  0  0  0  0  0  0
    2.2442    0.3477    0.4366 C   0  0  0  0  0  0  0  0  0  0  0  0
    2.7130   -0.5847   -0.5026 C   0  0  0  0  0  0  0  0  0  0  0  0
    3.8996   -0.2957   -1.1857 C   0  0  0  0  0  0  0  0  0  0  0  0
    4.6101    0.9051   -0.9590 C   0  0  0  0  0  0  0  0  0  0  0  0
    4.0968    1.8191   -0.0171 C   0  0  0  0  0  0  0  0  0  0  0  0
    2.9133    1.5508    0.6866 C   0  0  0  0  0  0  0  0  0  0  0  0
    5.8778    1.1952   -1.7201 C   0  0  0  0  0  0  0  0  0  0  0  0
    1.2540   -1.1628    2.5895 C   0  0  0  0  0  0  0  0  0  0  0  0
    2.1500   -1.5143   -0.6885 H   0  0  0  0  0  0  0  0  0  0  0  0
    4.2809   -1.0192   -1.9235 H   0  0  0  0  0  0  0  0  0  0  0  0
    4.6329    2.7633    0.1680 H   0  0  0  0  0  0  0  0  0  0  0  0
    2.4936    2.2586    1.4169 H   0  0  0  0  0  0  0  0  0  0  0  0
    6.6284    0.3920   -1.5693 H   0  0  0  0  0  0  0  0  0  0  0  0
    5.6842    1.2496   -2.8118 H   0  0  0  0  0  0  0  0  0  0  0  0
    6.3346    2.1537   -1.4077 H   0  0  0  0  0  0  0  0  0  0  0  0
    2.1391   -0.7331    3.0930 H   0  0  0  0  0  0  0  0  0  0  0  0
    0.4017   -1.2761    3.2848 H   0  0  0  0  0  0  0  0  0  0  0  0
    1.4513   -2.1129    2.0580 H   0  0  0  0  0  0  0  0  0  0  0  0
  1  2  1  1  0  0  0
  1 10  1  0  0  0  0
  3  8  1  0  0  0  0
  3  1  1  0  0  0  0
  4  3  2  0  0  0  0
  5  6  2  0  0  0  0
  5  4  1  0  0  0  0
  6  7  1  0  0  0  0
  7 13  1  0  0  0  0
  7  8  2  0  0  0  0
  8 14  1  0  0  0  0
  9 15  1  0  0  0  0
  9 17  1  0  0  0  0
  9  6  1  0  0  0  0
 10 18  1  0  0  0  0
 10 19  1  0  0  0  0
 11  4  1  0  0  0  0
 12  5  1  0  0  0  0
 16  9  1  0  0  0  0
 20 10  1  0  0  0  0
M  END
