1
q = -1.0, confidence = 0.0

 10 10  0  0  0  0  0  0  0  0999 V2000
    1.4802   -1.2318   -1.1993 S   0  0  0  0  0  1  0  0  0  0  0  0
    3.8124   -1.8099    0.7122 S   0  0  0  0  0  0  0  0  0  0  0  0
    3.5435    0.4405   -0.5030 N   0  0  0  0  0  0  0  0  0  0  0  0
    4.6812    0.5628    0.2143 N   0  0  0  0  0  0  0  0  0  0  0  0
    2.9361   -0.7229   -0.3601 C   0  0  0  0  0  0  0  0  0  0  0  0
    4.9949   -0.5195    0.8981 C   0  0  0  0  0  0  0  0  0  0  0  0
    6.2261   -0.6490    1.7289 C   0  0  0  0  0  0  0  0  0  0  0  0
    5.9858   -0.9016    2.7811 H   0  0  0  0  0  0  0  0  0  0  0  0
    6.8952   -1.4421    1.3375 H   0  0  0  0  0  0  0  0  0  0  0  0
    6.7651    0.3160    1.7019 H   0  0  0  0  0  0  0  0  0  0  0  0
  1  5  1  0  0  0  0
  2  6  1  0  0  0  0
  3  5  2  0  0  0  0
  3  4  1  0  0  0  0
  4  6  2  0  0  0  0
  5  2  1  0  0  0  0
  6  7  1  0  0  0  0
  7  8  1  0  0  0  0
  9  7  1  0  0  0  0
 10  7  1  0  0  0  0
M  END
