1
q = -1.0, confidence = 0.0

  8  8  0  0  0  0  0  0  0  0999 V2000
    1.0034   -1.7394   -1.0741 S   0  0  0  0  0  1  0  0  0  0  0  0
    4.0269   -1.4342   -0.6675 S   0  0  0  0  0  0  0  0  0  0  0  0
    6.1844   -0.3851    1.2963 S   0  0  0  0  0  0  0  0  0  0  0  0
    2.2652   -0.7219    1.1110 N   0  0  0  0  0  0  0  0  0  0  0  0
    3.4902   -0.4112    1.5828 N   0  0  0  0  0  0  0  0  0  0  0  0
    2.3636   -1.2685   -0.0807 C   0  0  0  0  0  0  0  0  0  0  0  0
    4.6335   -0.6860    0.8559 C   0  0  0  0  0  0  0  0  0  0  0  0
    3.5657   -0.0082    2.5219 H   0  0  0  0  0  0  0  0  0  0  0  0
  1  6  1  0  0  0  0
  2  6  1  0  0  0  0
  2  7  1  0  0  0  0
  4  5  1  0  0  0  0
  5  8  1  0  0  0  0
  6  4  2  0  0  0  0
  7  3  2  0  0  0  0
  7  5  1  0  0  0  0
M  END
