1
q = 0.0, confidence = 0.984

 12 12  0  0  1  0  0  0  0  0999 V2000
    2.3726   -1.7404    0.0001 S   0  0  0  0  0  1  0  0  0  0  0  0
    2.6115    1.3275   -0.0001 S   0  0  0  0  0  0  0  0  0  0  0  0
    3.2570   -0.2954    0.0000 C   0  0  1  0  0  3  0  0  0  0  0  0
    4.6204   -0.2260   -0.0000 N   0  0  0  0  0  0  0  0  0  0  0  0
    5.1727   -1.0882    0.0001 H   0  0  0  0  0  0  0  0  0  0  0  0
    5.1922    1.0449   -0.0001 C   0  0  0  0  0  0  0  0  0  0  0  0
    6.6777    1.2004   -0.0001 C   0  0  0  0  0  0  0  0  0  0  0  0
    6.9492    2.2713   -0.0006 H   0  0  0  0  0  0  0  0  0  0  0  0
    7.1342    0.7305   -0.8964 H   0  0  0  0  0  0  0  0  0  0  0  0
    7.1340    0.7314    0.8968 H   0  0  0  0  0  0  0  0  0  0  0  0
    4.2261    2.0129   -0.0002 C   0  0  0  0  0  0  0  0  0  0  0  0
    4.3819    3.0973   -0.0003 H   0  0  0  0  0  0  0  0  0  0  0  0
  2  3  1  0  0  0  0
  3  1  1  1  0  0  0
  4  3  1  0  0  0  0
  4  5  1  0  0  0  0
  6  7  1  0  0  0  0
  6  4  1  0  0  0  0
  7 10  1  0  0  0  0
  8  7  1  0  0  0  0
  9  7  1  0  0  0  0
 11  2  1  0  0  0  0
 11  6  2  0  0  0  0
 12 11  1  0  0  0  0
M  END
