2
q = -1.0, confidence = 0.0

 23 22  0  0  0  0  0  0  0  0999 V2000
    1.3183   -2.2018    0.7258 S   0  0  0  0  0  0  0  0  0  0  0  0
    2.1525    0.6070   -0.0748 S   0  0  0  0  0  1  0  0  0  0  0  0
    2.4576   -1.1173    0.0299 C   0  0  0  0  0  0  0  0  0  0  0  0
    3.6214   -1.5981   -0.4762 N   0  0  0  0  0  0  0  0  0  0  0  0
    3.9444   -3.0173   -0.3563 C   0  0  0  0  0  0  0  0  0  0  0  0
    4.9877   -3.1754   -0.6857 H   0  0  0  0  0  0  0  0  0  0  0  0
    3.2623   -3.6338   -0.9787 H   0  0  0  0  0  0  0  0  0  0  0  0
    3.8256   -3.3574    0.6917 H   0  0  0  0  0  0  0  0  0  0  0  0
    4.6042   -0.7285   -1.1225 C   0  0  0  0  0  0  0  0  0  0  0  0
    4.0535    0.1066   -1.5974 H   0  0  0  0  0  0  0  0  0  0  0  0
    5.1132   -1.2967   -1.9262 H   0  0  0  0  0  0  0  0  0  0  0  0
    5.6481   -0.1836   -0.1339 C   0  0  0  0  0  0  0  0  0  0  0  0
    5.1101    0.2632    0.7441 H   0  0  0  0  0  0  0  0  0  0  0  0
    6.2437   -1.0348    0.2587 H   0  0  0  0  0  0  0  0  0  0  0  0
    6.5522    0.7541   -0.7795 N   0  0  0  0  0  0  0  0  0  0  0  0
    7.8514    0.8307   -0.1392 C   0  0  0  0  0  0  0  0  0  0  0  0
    8.5251    1.4848   -0.7304 H   0  0  0  0  0  0  0  0  0  0  0  0
    8.3162   -0.1750   -0.0880 H   0  0  0  0  0  0  0  0  0  0  0  0
    7.8148    1.2458    0.9048 H   0  0  0  0  0  0  0  0  0  0  0  0
    5.9635    2.0713   -0.9596 C   0  0  0  0  0  0  0  0  0  0  0  0
    6.6200    2.6973   -1.5979 H   0  0  0  0  0  0  0  0  0  0  0  0
    5.8051    2.6153    0.0101 H   0  0  0  0  0  0  0  0  0  0  0  0
    4.9768    1.9994   -1.4572 H   0  0  0  0  0  0  0  0  0  0  0  0
  2  3  1  0  0  0  0
  3  1  2  0  0  0  0
  4  5  1  0  0  0  0
  4  3  1  0  0  0  0
  5  8  1  0  0  0  0
  6  5  1  0  0  0  0
  7  5  1  0  0  0  0
  9  4  1  0  0  0  0
  9 12  1  0  0  0  0
 10  9  1  0  0  0  0
 11  9  1  0  0  0  0
 12 14  1  0  0  0  0
 12 13  1  0  0  0  0
 15 16  1  0  0  0  0
 15 12  1  0  0  0  0
 16 18  1  0  0  0  0
 16 19  1  0  0  0  0
 17 16  1  0  0  0  0
 20 15  1  0  0  0  0
 20 22  1  0  0  0  0
 21 20  1  0  0  0  0
 23 20  1  0  0  0  0
M  END
