1
q = 0.0, confidence = 0.99

 24 24  0  0  1  0  0  0  0  0999 V2000
    1.8135    1.2973   -0.7438 S   0  0  0  0  0  1  0  0  0  0  0  0
    3.6239   -0.7116   -0.7993 N   0  0  0  0  0  0  0  0  0  0  0  0
    5.5376    0.1205    0.1940 N   0  0  0  0  0  0  0  0  0  0  0  0
    3.2948    0.5271   -0.4682 C   0  0  2  0  0  3  0  0  0  0  0  0
    4.9280   -1.1433   -0.2473 C   0  0  0  0  0  0  0  0  0  0  0  0
    4.4772    1.1538    0.2958 C   0  0  0  0  0  0  0  0  0  0  0  0
    4.6634   -2.1095    0.9212 C   0  0  0  0  0  0  0  0  0  0  0  0
    5.7645   -1.8221   -1.3344 C   0  0  0  0  0  0  0  0  0  0  0  0
    4.9219    2.4707   -0.3491 C   0  0  0  0  0  0  0  0  0  0  0  0
    4.0608    1.3953    1.7607 C   0  0  0  0  0  0  0  0  0  0  0  0
    2.8998   -1.3958   -1.1535 H   0  0  0  0  0  0  0  0  0  0  0  0
    6.2096    0.4194   -0.5212 H   0  0  0  0  0  0  0  0  0  0  0  0
    4.9312    1.7776    2.3293 H   0  0  0  0  0  0  0  0  0  0  0  0
    3.7199    0.4582    2.2410 H   0  0  0  0  0  0  0  0  0  0  0  0
    3.2315    2.1273    1.8096 H   0  0  0  0  0  0  0  0  0  0  0  0
    5.7859    2.8937    0.2020 H   0  0  0  0  0  0  0  0  0  0  0  0
    5.2108    2.3167   -1.4088 H   0  0  0  0  0  0  0  0  0  0  0  0
    4.0913    3.2022   -0.3249 H   0  0  0  0  0  0  0  0  0  0  0  0
    6.7627   -2.0892   -0.9350 H   0  0  0  0  0  0  0  0  0  0  0  0
    5.2705   -2.7501   -1.6822 H   0  0  0  0  0  0  0  0  0  0  0  0
    5.8902   -1.1479   -2.2053 H   0  0  0  0  0  0  0  0  0  0  0  0
    5.6228   -2.4673    1.3424 H   0  0  0  0  0  0  0  0  0  0  0  0
    4.0654   -2.9764    0.5756 H   0  0  0  0  0  0  0  0  0  0  0  0
    4.0980   -1.6018    1.7252 H   0  0  0  0  0  0  0  0  0  0  0  0
  2  4  1  0  0  0  0
  2  5  1  0  0  0  0
  3  6  1  0  0  0  0
  4  1  1  1  0  0  0
  4  6  1  0  0  0  0
  5  3  1  0  0  0  0
  5  7  1  0  0  0  0
  6 10  1  0  0  0  0
  7 22  1  0  0  0  0
  7 24  1  0  0  0  0
  8 19  1  0  0  0  0
  8  5  1  0  0  0  0
  9 18  1  0  0  0  0
  9 16  1  0  0  0  0
  9  6  1  0  0  0  0
 10 15  1  0  0  0  0
 10 14  1  0  0  0  0
 10 13  1  0  0  0  0
 11  2  1  0  0  0  0
 12  3  1  0  0  0  0
 17  9  1  0  0  0  0
 20  8  1  0  0  0  0
 21  8  1  0  0  0  0
 23  7  1  0  0  0  0
M  END
