1
q = -1.0, confidence = 0.0

 16 16  0  0  0  0  0  0  0  0999 V2000
    2.6668    0.7825   -0.0558 S   0  0  0  0  0  1  0  0  0  0  0  0
    3.5122   -3.1568    0.0664 O   0  0  0  0  0  0  0  0  0  0  0  0
    2.8744   -3.9005    0.0857 H   0  0  0  0  0  0  0  0  0  0  0  0
    1.5051   -2.1587    0.0218 O   0  0  0  0  0  0  0  0  0  0  0  0
    2.7292   -2.0422    0.0293 C   0  0  0  0  0  0  0  0  0  0  0  0
    3.4967   -0.7698    0.0027 C   0  0  0  0  0  0  0  0  0  0  0  0
    4.8783   -0.8549    0.0226 C   0  0  0  0  0  0  0  0  0  0  0  0
    5.3169   -1.8620    0.0577 H   0  0  0  0  0  0  0  0  0  0  0  0
    5.8378    0.2012    0.0044 C   0  0  0  0  0  0  0  0  0  0  0  0
    5.8050    1.5970   -0.0378 C   0  0  0  0  0  0  0  0  0  0  0  0
    4.8953    2.2030   -0.0692 H   0  0  0  0  0  0  0  0  0  0  0  0
    7.1600    2.0404   -0.0312 C   0  0  0  0  0  0  0  0  0  0  0  0
    7.5206    3.0747   -0.0569 H   0  0  0  0  0  0  0  0  0  0  0  0
    7.9378    0.9014    0.0138 C   0  0  0  0  0  0  0  0  0  0  0  0
    9.0193    0.7305    0.0343 H   0  0  0  0  0  0  0  0  0  0  0  0
    7.1616   -0.2087    0.0356 O   0  0  0  0  0  0  0  0  0  0  0  0
  1  6  1  0  0  0  0
  2  3  1  0  0  0  0
  4  5  2  0  0  0  0
  5  2  1  0  0  0  0
  6  7  2  0  0  0  0
  6  5  1  0  0  0  0
  7  8  1  0  0  0  0
  9  7  1  0  0  0  0
  9 16  1  0  0  0  0
 10 12  1  0  0  0  0
 10  9  2  0  0  0  0
 11 10  1  0  0  0  0
 12 14  2  0  0  0  0
 13 12  1  0  0  0  0
 14 15  1  0  0  0  0
 14 16  1  0  0  0  0
M  END
