1
q = 0.0, confidence = 1.0

 15 15  0  0  1  0  0  0  0  0999 V2000
   -0.1150   -2.5246   -1.0542 S   0  0  0  0  0  1  0  0  0  0  0  0
   -6.2839   -1.9784   -0.7119 F   0  0  0  0  0  0  0  0  0  0  0  0
   -5.6064   -3.8480   -1.6246 F   0  0  0  0  0  0  0  0  0  0  0  0
   -5.4029   -3.5544    0.5249 F   0  0  0  0  0  0  0  0  0  0  0  0
   -2.3974   -0.9418   -1.2017 N   0  0  0  0  0  0  0  0  0  0  0  0
   -1.9531    0.0789   -1.2200 H   0  0  0  0  0  0  0  0  0  0  0  0
   -3.7436   -1.0451   -1.1065 N   0  0  0  0  0  0  0  0  0  0  0  0
   -2.7980   -3.0425   -0.8267 N   0  0  0  0  0  0  0  0  0  0  0  0
   -1.7651   -2.1349   -1.0289 C   0  0  1  0  0  3  0  0  0  0  0  0
   -3.9702   -2.3174   -0.8804 C   0  0  0  0  0  0  0  0  0  0  0  0
   -5.3325   -2.9144   -0.6745 C   0  0  0  0  0  0  0  0  0  0  0  0
   -2.6253   -4.4512   -0.5266 C   0  0  0  0  0  0  0  0  0  0  0  0
   -2.7308   -4.6267    0.5627 H   0  0  0  0  0  0  0  0  0  0  0  0
   -1.6038   -4.7347   -0.8444 H   0  0  0  0  0  0  0  0  0  0  0  0
   -3.3771   -5.0467   -1.0756 H   0  0  0  0  0  0  0  0  0  0  0  0
  2 11  1  0  0  0  0
  3 11  1  0  0  0  0
  5  7  1  0  0  0  0
  5  9  1  0  0  0  0
  6  5  1  0  0  0  0
  7 10  2  0  0  0  0
  8 12  1  0  0  0  0
  9  1  1  6  0  0  0
  9  8  1  0  0  0  0
 10  8  1  0  0  0  0
 10 11  1  0  0  0  0
 11  4  1  0  0  0  0
 12 13  1  0  0  0  0
 14 12  1  0  0  0  0
 15 12  1  0  0  0  0
M  END
