1
q = 0.0, confidence = 1.0

 28 28  0  0  1  0  0  0  0  0999 V2000
    1.8950   -1.2807   -1.3433 S   0  0  0  0  0  1  0  0  0  0  0  0
   -1.9463    1.2370   -0.5281 N   0  0  0  0  0  0  0  0  0  0  0  0
    0.7527    1.4586   -0.9495 N   0  0  0  0  0  2  0  0  0  0  0  0
    2.0844    1.3394   -0.7456 N   0  0  0  0  0  0  0  0  0  0  0  0
    2.5795    2.1008   -0.2629 H   0  0  0  0  0  0  0  0  0  0  0  0
    4.0988    0.2216   -0.9424 N   0  0  0  0  0  0  0  0  0  0  0  0
    0.7597    3.2684    0.5937 N   0  0  0  0  0  4  0  0  0  0  0  0
    1.2627    2.7006    1.3027 H   0  0  0  0  0  0  0  0  0  0  0  0
    0.0945    3.8676    1.0913 H   0  0  0  0  0  0  0  0  0  0  0  0
   -3.2741    1.1681   -0.6778 C   0  0  0  0  0  0  0  0  0  0  0  0
   -3.6938    0.1459   -0.6962 H   0  0  0  0  0  0  0  0  0  0  0  0
   -4.0811    2.3139   -0.7883 C   0  0  0  0  0  0  0  0  0  0  0  0
   -5.1699    2.2157   -0.9077 H   0  0  0  0  0  0  0  0  0  0  0  0
   -3.4650    3.5720   -0.7328 C   0  0  0  0  0  0  0  0  0  0  0  0
   -4.0619    4.4928   -0.8165 H   0  0  0  0  0  0  0  0  0  0  0  0
   -2.0728    3.6448   -0.5785 C   0  0  0  0  0  0  0  0  0  0  0  0
   -1.5568    4.6169   -0.5567 H   0  0  0  0  0  0  0  0  0  0  0  0
   -1.3449    2.4427   -0.4896 C   0  0  0  0  0  0  0  0  0  0  0  0
    0.1324    2.4008   -0.3019 C   0  0  0  0  0  0  0  0  0  0  0  0
    2.7344    0.1548   -0.9902 C   0  0  2  0  0  3  0  0  0  0  0  0
    4.8024    1.4916   -0.8474 C   0  0  0  0  0  0  0  0  0  0  0  0
    5.8320    1.3631   -1.2314 H   0  0  0  0  0  0  0  0  0  0  0  0
    4.8765    1.8623    0.2017 H   0  0  0  0  0  0  0  0  0  0  0  0
    4.3070    2.2647   -1.4683 H   0  0  0  0  0  0  0  0  0  0  0  0
    4.9190   -0.9798   -0.9056 C   0  0  0  0  0  0  0  0  0  0  0  0
    5.6345   -0.9213   -0.0588 H   0  0  0  0  0  0  0  0  0  0  0  0
    5.4914   -1.1012   -1.8504 H   0  0  0  0  0  0  0  0  0  0  0  0
    4.2593   -1.8571   -0.7766 H   0  0  0  0  0  0  0  0  0  0  0  0
  2 18  1  0  0  0  0
  3  4  1  0  0  0  0
  3 19  1  0  0  0  0
  4  5  1  0  0  0  0
  6 25  1  0  0  0  0
  6 21  1  0  0  0  0
  7  9  1  0  0  0  0
  7  8  1  0  0  0  0
 10  2  2  0  0  0  0
 11 10  1  0  0  0  0
 12 14  2  0  0  0  0
 12 10  1  0  0  0  0
 13 12  1  0  0  0  0
 14 16  1  0  0  0  0
 15 14  1  0  0  0  0
 16 17  1  0  0  0  0
 16 18  2  0  0  0  0
 18 19  1  0  0  0  0
 19  7  2  0  0  0  0
 20  1  1  6  0  0  0
 20  6  1  0  0  0  0
 20  4  1  0  0  0  0
 21 23  1  0  0  0  0
 22 21  1  0  0  0  0
 24 21  1  0  0  0  0
 25 28  1  0  0  0  0
 25 26  1  0  0  0  0
 27 25  1  0  0  0  0
M  END
