1
q = 0.0, confidence = 0.508

  8  8  0  0  0  0  0  0  0  0999 V2000
   -1.7824   -1.9653   -0.2946 S   0  0  0  0  0  1  0  0  0  0  0  0
   -2.9934   -0.8568    0.1307 C   0  0  0  0  0  3  0  0  0  0  0  0
   -4.3447   -1.1470    0.2996 N   0  0  0  0  0  0  0  0  0  0  0  0
   -4.7368   -2.0442   -0.0020 H   0  0  0  0  0  0  0  0  0  0  0  0
   -2.8903    0.4956    0.4133 N   0  0  0  0  0  0  0  0  0  0  0  0
   -1.9627    0.9546    0.4711 H   0  0  0  0  0  0  0  0  0  0  0  0
   -4.1139    0.9327    0.8504 C   0  0  0  0  0  2  0  0  0  0  0  0
   -5.0204    0.0297    0.5283 C   0  0  0  0  0  2  0  0  0  0  0  0
  1  2  1  0  0  0  0
  2  3  1  0  0  0  0
  2  5  1  0  0  0  0
  3  8  1  0  0  0  0
  4  3  1  0  0  0  0
  5  6  1  0  0  0  0
  5  7  1  0  0  0  0
  8  7  1  0  0  0  0
M  END
