1
q = 0.0, confidence = 1.0

 35 36  0  0  1  0  0  0  0  0999 V2000
   -0.4486   -1.5391   -0.7349 S   0  0  0  0  0  1  0  0  0  0  0  0
    2.1643    2.8251   -0.2773 O   0  0  0  0  0  0  0  0  0  0  0  0
    1.0428   -0.7194   -0.7302 C   0  0  2  0  0  3  0  0  0  0  0  0
    1.1027    0.7063   -0.6229 C   0  0  0  0  0  0  0  0  0  0  0  0
    2.1378    1.4898   -0.1291 C   0  0  0  0  0  0  0  0  0  0  0  0
    1.1812    3.4816   -1.1001 C   0  0  0  0  0  0  0  0  0  0  0  0
    1.5848    4.9342   -1.2401 C   0  0  0  0  0  0  0  0  0  0  0  0
    2.2522   -1.5481   -0.9430 C   0  0  0  0  0  0  0  0  0  0  0  0
    2.3542   -2.8423   -0.3814 C   0  0  0  0  0  0  0  0  0  0  0  0
    3.5049   -3.6146   -0.5744 C   0  0  0  0  0  0  0  0  0  0  0  0
    4.5715   -3.1150   -1.3403 C   0  0  0  0  0  0  0  0  0  0  0  0
    4.4750   -1.8388   -1.9192 C   0  0  0  0  0  0  0  0  0  0  0  0
    3.3281   -1.0619   -1.7231 C   0  0  0  0  0  0  0  0  0  0  0  0
    3.2862    1.0040    0.6611 C   0  0  0  0  0  0  0  0  0  0  0  0
    3.1227   -0.0337    1.6044 C   0  0  0  0  0  0  0  0  0  0  0  0
    4.2217   -0.4999    2.3346 C   0  0  0  0  0  0  0  0  0  0  0  0
    5.4908    0.0697    2.1406 C   0  0  0  0  0  0  0  0  0  0  0  0
    5.6544    1.1237    1.2261 C   0  0  0  0  0  0  0  0  0  0  0  0
    4.5575    1.5965    0.4965 C   0  0  0  0  0  0  0  0  0  0  0  0
    0.1787    1.2223   -0.9222 H   0  0  0  0  0  0  0  0  0  0  0  0
    1.1282    2.9654   -2.0842 H   0  0  0  0  0  0  0  0  0  0  0  0
    0.1835    3.3854   -0.6208 H   0  0  0  0  0  0  0  0  0  0  0  0
    0.8343    5.4719   -1.8519 H   0  0  0  0  0  0  0  0  0  0  0  0
    2.5714    5.0290   -1.7349 H   0  0  0  0  0  0  0  0  0  0  0  0
    1.6416    5.4249   -0.2489 H   0  0  0  0  0  0  0  0  0  0  0  0
    1.5213   -3.2203    0.2297 H   0  0  0  0  0  0  0  0  0  0  0  0
    3.5745   -4.6127   -0.1162 H   0  0  0  0  0  0  0  0  0  0  0  0
    5.4776   -3.7217   -1.4884 H   0  0  0  0  0  0  0  0  0  0  0  0
    5.3002   -1.4471   -2.5328 H   0  0  0  0  0  0  0  0  0  0  0  0
    3.2477   -0.0692   -2.1888 H   0  0  0  0  0  0  0  0  0  0  0  0
    2.1220   -0.4546    1.7755 H   0  0  0  0  0  0  0  0  0  0  0  0
    4.0850   -1.3087    3.0677 H   0  0  0  0  0  0  0  0  0  0  0  0
    6.3543   -0.3019    2.7128 H   0  0  0  0  0  0  0  0  0  0  0  0
    6.6459    1.5783    1.0800 H   0  0  0  0  0  0  0  0  0  0  0  0
    4.6752    2.4195   -0.2228 H   0  0  0  0  0  0  0  0  0  0  0  0
  2  5  1  0  0  0  0
  3  1  1  6  0  0  0
  3  4  1  0  0  0  0
  4  5  2  0  0  0  0
  5 14  1  0  0  0  0
  6 22  1  0  0  0  0
  6  2  1  0  0  0  0
  7  6  1  0  0  0  0
  7 25  1  0  0  0  0
  8  3  1  0  0  0  0
  8  9  1  0  0  0  0
  9 26  1  0  0  0  0
 10  9  2  0  0  0  0
 10 27  1  0  0  0  0
 11 10  1  0  0  0  0
 12 13  1  0  0  0  0
 12 11  2  0  0  0  0
 13  8  2  0  0  0  0
 14 15  1  0  0  0  0
 15 31  1  0  0  0  0
 15 16  2  0  0  0  0
 16 32  1  0  0  0  0
 17 16  1  0  0  0  0
 17 33  1  0  0  0  0
 18 17  2  0  0  0  0
 19 14  2  0  0  0  0
 19 18  1  0  0  0  0
 20  4  1  0  0  0  0
 21  6  1  0  0  0  0
 23  7  1  0  0  0  0
 24  7  1  0  0  0  0
 28 11  1  0  0  0  0
 29 12  1  0  0  0  0
 30 13  1  0  0  0  0
 34 18  1  0  0  0  0
 35 19  1  0  0  0  0
M  END
