1
q = 0.0, confidence = 1.0

 42 43  0  0  1  0  0  0  0  0999 V2000
    0.3320   -1.0017    1.5891 S   0  0  0  0  0  1  0  0  0  0  0  0
   -2.4550   -0.4367    2.5530 S   0  0  0  0  0  0  0  0  0  0  0  0
   -2.5759    2.2637   -0.8891 O   0  0  0  0  0  0  0  0  0  0  0  0
   -1.0895   -0.0999    1.5266 C   0  0  1  0  0  3  0  0  0  0  0  0
   -1.2815    1.1115    0.7040 C   0  0  0  0  0  0  0  0  0  0  0  0
   -2.2861    1.1095   -0.2514 C   0  0  0  0  0  0  0  0  0  0  0  0
   -3.0872    2.2408   -2.2423 C   0  0  0  0  0  0  0  0  0  0  0  0
   -2.5611    3.4655   -2.9642 C   0  0  0  0  0  0  0  0  0  0  0  0
   -3.0526   -0.1083   -0.6222 C   0  0  0  0  0  0  0  0  0  0  0  0
   -2.3774   -1.2882   -0.9971 C   0  0  0  0  0  0  0  0  0  0  0  0
   -3.0952   -2.4420   -1.3402 C   0  0  0  0  0  0  0  0  0  0  0  0
   -4.4982   -2.4293   -1.3131 C   0  0  0  0  0  0  0  0  0  0  0  0
   -5.1805   -1.2540   -0.9497 C   0  0  0  0  0  0  0  0  0  0  0  0
   -4.4654   -0.0981   -0.6141 C   0  0  0  0  0  0  0  0  0  0  0  0
   -0.4146    2.2764    1.0217 C   0  0  0  0  0  0  0  0  0  0  0  0
    0.0437    2.4481    2.3508 C   0  0  0  0  0  0  0  0  0  0  0  0
    0.8591    3.5302    2.7024 C   0  0  0  0  0  0  0  0  0  0  0  0
    1.2410    4.4706    1.7338 C   0  0  0  0  0  0  0  0  0  0  0  0
    0.7965    4.3141    0.4116 C   0  0  0  0  0  0  0  0  0  0  0  0
   -0.0202    3.2341    0.0566 C   0  0  0  0  0  0  0  0  0  0  0  0
   -2.1338   -2.1065    3.2388 C   0  0  0  0  0  0  0  0  0  0  0  0
   -2.3671   -3.2290    2.2340 C   0  0  0  0  0  0  0  0  0  0  0  0
   -2.7651    1.3064   -2.7447 H   0  0  0  0  0  0  0  0  0  0  0  0
   -4.1978    2.2409   -2.2057 H   0  0  0  0  0  0  0  0  0  0  0  0
   -3.0202    3.5341   -3.9704 H   0  0  0  0  0  0  0  0  0  0  0  0
   -1.4623    3.4081   -3.0897 H   0  0  0  0  0  0  0  0  0  0  0  0
   -2.8074    4.3898   -2.4053 H   0  0  0  0  0  0  0  0  0  0  0  0
   -1.2798   -1.2927   -1.0206 H   0  0  0  0  0  0  0  0  0  0  0  0
   -2.5472   -3.3510   -1.6311 H   0  0  0  0  0  0  0  0  0  0  0  0
   -5.0647   -3.3344   -1.5799 H   0  0  0  0  0  0  0  0  0  0  0  0
   -6.2807   -1.2427   -0.9217 H   0  0  0  0  0  0  0  0  0  0  0  0
   -4.9993    0.8144   -0.3084 H   0  0  0  0  0  0  0  0  0  0  0  0
   -0.2563    1.7234    3.1221 H   0  0  0  0  0  0  0  0  0  0  0  0
    1.1995    3.6382    3.7434 H   0  0  0  0  0  0  0  0  0  0  0  0
    1.8878    5.3180    2.0062 H   0  0  0  0  0  0  0  0  0  0  0  0
    1.0989    5.0378   -0.3606 H   0  0  0  0  0  0  0  0  0  0  0  0
   -0.3481    3.1235   -0.9820 H   0  0  0  0  0  0  0  0  0  0  0  0
   -2.8280   -2.1650    4.1021 H   0  0  0  0  0  0  0  0  0  0  0  0
   -1.0974   -2.1054    3.6333 H   0  0  0  0  0  0  0  0  0  0  0  0
   -2.1993   -4.2103    2.7235 H   0  0  0  0  0  0  0  0  0  0  0  0
   -1.6643   -3.1519    1.3818 H   0  0  0  0  0  0  0  0  0  0  0  0
   -3.3990   -3.2081    1.8326 H   0  0  0  0  0  0  0  0  0  0  0  0
  2 21  1  0  0  0  0
  3  6  1  0  0  0  0
  4  1  1  1  0  0  0
  4  2  1  0  0  0  0
  5 15  1  0  0  0  0
  5  4  1  0  0  0  0
  6  5  2  0  0  0  0
  7 24  1  0  0  0  0
  7  3  1  0  0  0  0
  8 27  1  0  0  0  0
  8  7  1  0  0  0  0
  9 14  1  0  0  0  0
  9  6  1  0  0  0  0
 10  9  2  0  0  0  0
 11 12  2  0  0  0  0
 11 10  1  0  0  0  0
 12 13  1  0  0  0  0
 13 31  1  0  0  0  0
 13 14  2  0  0  0  0
 14 32  1  0  0  0  0
 15 16  1  0  0  0  0
 16 17  2  0  0  0  0
 16 33  1  0  0  0  0
 17 34  1  0  0  0  0
 18 35  1  0  0  0  0
 18 17  1  0  0  0  0
 19 18  2  0  0  0  0
 20 19  1  0  0  0  0
 20 15  2  0  0  0  0
 21 39  1  0  0  0  0
 21 38  1  0  0  0  0
 22 40  1  0  0  0  0
 22 21  1  0  0  0  0
 23  7  1  0  0  0  0
 25  8  1  0  0  0  0
 26  8  1  0  0  0  0
 28 10  1  0  0  0  0
 29 11  1  0  0  0  0
 30 12  1  0  0  0  0
 36 19  1  0  0  0  0
 37 20  1  0  0  0  0
 41 22  1  0  0  0  0
 42 22  1  0  0  0  0
M  END
