1
q = 0.0, confidence = 0.988

 16 15  0  0  0  0  0  0  0  0999 V2000
   -1.8409    0.5390   -0.0470 S   0  0  0  0  0  3  0  0  0  0  0  0
   -2.3601    1.9567   -0.0872 O   0  0  0  0  0  1  0  0  0  0  0  0
   -2.6705   -0.3609   -1.4352 C   0  0  0  0  0  0  0  0  0  0  0  0
   -4.1353    0.0187   -1.5610 C   0  0  0  0  0  0  0  0  0  0  0  0
   -2.6271   -0.2477    1.4279 C   0  0  0  0  0  0  0  0  0  0  0  0
   -2.1367    0.4797    2.6698 C   0  0  0  0  0  0  0  0  0  0  0  0
   -2.4499   -1.4340   -1.2593 H   0  0  0  0  0  0  0  0  0  0  0  0
   -2.0711   -0.0313   -2.3069 H   0  0  0  0  0  0  0  0  0  0  0  0
   -4.5443   -0.3361   -2.5291 H   0  0  0  0  0  0  0  0  0  0  0  0
   -4.7528   -0.4245   -0.7536 H   0  0  0  0  0  0  0  0  0  0  0  0
   -4.2401    1.1217   -1.5125 H   0  0  0  0  0  0  0  0  0  0  0  0
   -2.3177   -1.3129    1.3885 H   0  0  0  0  0  0  0  0  0  0  0  0
   -3.7202   -0.1393    1.2740 H   0  0  0  0  0  0  0  0  0  0  0  0
   -2.3428    1.5655    2.5863 H   0  0  0  0  0  0  0  0  0  0  0  0
   -1.0418    0.3449    2.7838 H   0  0  0  0  0  0  0  0  0  0  0  0
   -2.6419    0.0851    3.5748 H   0  0  0  0  0  0  0  0  0  0  0  0
  1  5  1  0  0  0  0
  2  1  1  0  0  0  0
  3  7  1  0  0  0  0
  3  1  1  0  0  0  0
  4 11  1  0  0  0  0
  4  3  1  0  0  0  0
  4 10  1  0  0  0  0
  5  6  1  0  0  0  0
  6 15  1  0  0  0  0
  6 16  1  0  0  0  0
  8  3  1  0  0  0  0
  9  4  1  0  0  0  0
 12  5  1  0  0  0  0
 13  5  1  0  0  0  0
 14  6  1  0  0  0  0
M  END
