1
q = -1.0, confidence = 0.0

 14 15  0  0  0  0  0  0  0  0999 V2000
    1.2200   -1.0559   -1.7638 S   0  0  0  0  0  1  0  0  0  0  0  0
    2.9121   -1.1577    0.8077 S   0  0  0  0  0  0  0  0  0  0  0  0
    3.8567   -1.6749   -1.6028 N   0  0  0  0  0  0  0  0  0  0  0  0
    2.7584   -1.3363   -0.9871 C   0  0  0  0  0  0  0  0  0  0  0  0
    4.9140   -1.8188   -0.7255 C   0  0  0  0  0  0  0  0  0  0  0  0
    4.6145   -1.5688    0.6540 C   0  0  0  0  0  0  0  0  0  0  0  0
    5.6003   -1.6601    1.6479 C   0  0  0  0  0  0  0  0  0  0  0  0
    5.3594   -1.4670    2.7037 H   0  0  0  0  0  0  0  0  0  0  0  0
    6.9033   -2.0094    1.2624 C   0  0  0  0  0  0  0  0  0  0  0  0
    7.6899   -2.0894    2.0277 H   0  0  0  0  0  0  0  0  0  0  0  0
    7.2139   -2.2605   -0.0912 C   0  0  0  0  0  0  0  0  0  0  0  0
    8.2434   -2.5330   -0.3689 H   0  0  0  0  0  0  0  0  0  0  0  0
    6.2332   -2.1681   -1.0849 C   0  0  0  0  0  0  0  0  0  0  0  0
    6.4607   -2.3588   -2.1434 H   0  0  0  0  0  0  0  0  0  0  0  0
  1  4  1  0  0  0  0
  3  4  2  0  0  0  0
  3  5  1  0  0  0  0
  4  2  1  0  0  0  0
  5  6  1  0  0  0  0
  6  2  1  0  0  0  0
  6  7  2  0  0  0  0
  7  8  1  0  0  0  0
  9  7  1  0  0  0  0
  9 10  1  0  0  0  0
 11  9  2  0  0  0  0
 12 11  1  0  0  0  0
 13  5  2  0  0  0  0
 13 11  1  0  0  0  0
 14 13  1  0  0  0  0
M  END
