1
q = 0.0, confidence = 0.954

 29 29  0  0  1  0  0  0  0  0999 V2000
   -1.0622   -1.3623    1.9848 S   0  0  0  0  0  1  0  0  0  0  0  0
    0.6020   -1.5430    1.6230 C   0  0  1  0  0  3  0  0  0  0  0  0
    0.8185   -3.5794    2.9921 C   0  0  0  0  0  0  0  0  0  0  0  0
    1.6214   -4.3089    3.2011 H   0  0  0  0  0  0  0  0  0  0  0  0
   -0.0352   -4.1065    2.5161 H   0  0  0  0  0  0  0  0  0  0  0  0
    0.4587   -3.1535    3.9525 H   0  0  0  0  0  0  0  0  0  0  0  0
    3.1192    0.1150   -0.2230 C   0  0  0  0  0  0  0  0  0  0  0  0
    2.3464    1.2449   -0.8501 C   0  0  0  0  0  0  0  0  0  0  0  0
    1.6413    0.8677   -1.6228 H   0  0  0  0  0  0  0  0  0  0  0  0
    3.0032    1.9959   -1.3200 H   0  0  0  0  0  0  0  0  0  0  0  0
    1.7265    1.7673   -0.0859 H   0  0  0  0  0  0  0  0  0  0  0  0
    4.5676   -0.0629   -0.4585 C   0  0  0  0  0  0  0  0  0  0  0  0
    5.2181    0.5650   -1.5487 C   0  0  0  0  0  0  0  0  0  0  0  0
    4.6462    1.1944   -2.2445 H   0  0  0  0  0  0  0  0  0  0  0  0
    6.5845    0.3788   -1.7797 C   0  0  0  0  0  0  0  0  0  0  0  0
    7.1032    0.8502   -2.6248 H   0  0  0  0  0  0  0  0  0  0  0  0
    7.3127   -0.4377   -0.9070 C   0  0  0  0  0  0  0  0  0  0  0  0
    6.7048   -1.0734    0.1866 C   0  0  0  0  0  0  0  0  0  0  0  0
    7.3215   -1.6965    0.8477 H   0  0  0  0  0  0  0  0  0  0  0  0
    5.3411   -0.8834    0.4029 C   0  0  0  0  0  0  0  0  0  0  0  0
    4.8466   -1.3579    1.2611 H   0  0  0  0  0  0  0  0  0  0  0  0
    1.3385   -2.5458    2.1215 N   0  0  0  0  0  0  0  0  0  0  0  0
    2.3174   -2.5417    1.8112 H   0  0  0  0  0  0  0  0  0  0  0  0
    1.2319   -0.6521    0.7952 N   0  0  0  0  0  0  0  0  0  0  0  0
    0.6306    0.1354    0.4590 H   0  0  0  0  0  0  0  0  0  0  0  0
    2.5470   -0.7693    0.5549 N   0  0  0  0  0  0  0  0  0  0  0  0
    8.7625   -0.6319   -1.1408 N   0  0  0  0  0  0  0  0  0  0  0  0
    9.2628   -0.0537   -2.1060 O   0  0  0  0  0  0  0  0  0  0  0  0
    9.3692   -1.3594   -0.3541 O   0  0  0  0  0  0  0  0  0  0  0  0
  2  1  1  6  0  0  0
  2 22  1  0  0  0  0
  3  4  1  0  0  0  0
  3  6  1  0  0  0  0
  5  3  1  0  0  0  0
  7 26  2  0  0  0  0
  8  7  1  0  0  0  0
  8 11  1  0  0  0  0
  9  8  1  0  0  0  0
 10  8  1  0  0  0  0
 12  7  1  0  0  0  0
 12 20  1  0  0  0  0
 13 12  2  0  0  0  0
 14 13  1  0  0  0  0
 15 13  1  0  0  0  0
 15 17  2  0  0  0  0
 16 15  1  0  0  0  0
 17 18  1  0  0  0  0
 18 20  2  0  0  0  0
 18 19  1  0  0  0  0
 20 21  1  0  0  0  0
 22  3  1  0  0  0  0
 23 22  1  0  0  0  0
 24  2  1  0  0  0  0
 25 24  1  0  0  0  0
 26 24  1  0  0  0  0
 27 17  1  0  0  0  0
 27 29  2  0  0  0  0
 28 27  2  0  0  0  0
M  END
