1
q = -1.0, confidence = 0.0

 44 43  0  0  1  0  0  0  0  0999 V2000
   -1.9716   -0.0802   -1.9148 S   0  0  0  0  0  1  0  0  0  0  0  0
   -2.7968   -0.2296    0.0504 Si  0  0  0  0  0  0  0  0  0  0  0  0
   -4.4553   -0.0582   -0.0498 O   0  0  0  0  0  0  0  0  0  0  0  0
   -2.2243    0.9706    1.0765 O   0  0  0  0  0  0  0  0  0  0  0  0
   -2.5121   -1.6776    0.8425 O   0  0  0  0  0  0  0  0  0  0  0  0
   -5.7361   -2.1004   -0.2055 C   0  0  0  0  0  0  0  0  0  0  0  0
   -4.8514   -2.6707    0.1386 H   0  0  0  0  0  0  0  0  0  0  0  0
   -6.3440   -1.8373    0.6849 H   0  0  0  0  0  0  0  0  0  0  0  0
   -6.3415   -2.7520   -0.8672 H   0  0  0  0  0  0  0  0  0  0  0  0
   -5.2872   -0.8313   -0.9272 C   0  0  1  0  0  0  0  0  0  0  0  0
   -4.6974   -1.1196   -1.8321 H   0  0  0  0  0  0  0  0  0  0  0  0
   -6.4351    0.0765   -1.3797 C   0  0  0  0  0  0  0  0  0  0  0  0
   -5.9749    1.0013   -1.7871 H   0  0  0  0  0  0  0  0  0  0  0  0
   -7.0058    0.3853   -0.4761 H   0  0  0  0  0  0  0  0  0  0  0  0
   -7.3656   -0.5495   -2.4178 C   0  0  0  0  0  0  0  0  0  0  0  0
   -8.1291    0.1770   -2.7611 H   0  0  0  0  0  0  0  0  0  0  0  0
   -6.8024   -0.8872   -3.3132 H   0  0  0  0  0  0  0  0  0  0  0  0
   -7.9070   -1.4298   -2.0150 H   0  0  0  0  0  0  0  0  0  0  0  0
   -1.0035    3.0328    1.1230 C   0  0  0  0  0  0  0  0  0  0  0  0
   -0.1533    2.5718    0.5792 H   0  0  0  0  0  0  0  0  0  0  0  0
   -1.0127    4.1147    0.8840 H   0  0  0  0  0  0  0  0  0  0  0  0
   -0.8301    2.9179    2.2136 H   0  0  0  0  0  0  0  0  0  0  0  0
   -2.3113    2.3599    0.7217 C   0  0  2  0  0  0  0  0  0  0  0  0
   -2.4220    2.4467   -0.3870 H   0  0  0  0  0  0  0  0  0  0  0  0
   -3.5598    2.9584    1.3831 C   0  0  0  0  0  0  0  0  0  0  0  0
   -3.4409    2.8790    2.4863 H   0  0  0  0  0  0  0  0  0  0  0  0
   -4.4100    2.2985    1.1123 H   0  0  0  0  0  0  0  0  0  0  0  0
   -3.8633    4.3994    0.9733 C   0  0  0  0  0  0  0  0  0  0  0  0
   -4.8148    4.7504    1.4205 H   0  0  0  0  0  0  0  0  0  0  0  0
   -3.0701    5.1055    1.2952 H   0  0  0  0  0  0  0  0  0  0  0  0
   -3.9621    4.4916   -0.1290 H   0  0  0  0  0  0  0  0  0  0  0  0
   -0.6719   -3.2216    0.6017 C   0  0  0  0  0  0  0  0  0  0  0  0
   -0.5608   -2.9272   -0.4615 H   0  0  0  0  0  0  0  0  0  0  0  0
    0.3218   -3.5173    0.9970 H   0  0  0  0  0  0  0  0  0  0  0  0
   -1.3473   -4.1003    0.6473 H   0  0  0  0  0  0  0  0  0  0  0  0
   -1.2529   -2.0609    1.4038 C   0  0  2  0  0  0  0  0  0  0  0  0
   -0.5458   -1.1994    1.3387 H   0  0  0  0  0  0  0  0  0  0  0  0
   -1.4425   -2.3930    2.8881 C   0  0  0  0  0  0  0  0  0  0  0  0
   -0.4394   -2.6190    3.3118 H   0  0  0  0  0  0  0  0  0  0  0  0
   -2.0375   -3.3302    2.9660 H   0  0  0  0  0  0  0  0  0  0  0  0
   -2.1219   -1.2775    3.6810 C   0  0  0  0  0  0  0  0  0  0  0  0
   -2.1700   -1.5202    4.7619 H   0  0  0  0  0  0  0  0  0  0  0  0
   -1.5878   -0.3134    3.5605 H   0  0  0  0  0  0  0  0  0  0  0  0
   -3.1538   -1.1132    3.3152 H   0  0  0  0  0  0  0  0  0  0  0  0
  1  2  1  0  0  0  0
  2  5  1  0  0  0  0
  2  4  1  0  0  0  0
  3  2  1  0  0  0  0
  5 36  1  0  0  0  0
  6  7  1  0  0  0  0
  6  8  1  0  0  0  0
  9  6  1  0  0  0  0
 10 11  1  6  0  0  0
 10  6  1  0  0  0  0
 10  3  1  0  0  0  0
 12 10  1  0  0  0  0
 12 14  1  0  0  0  0
 13 12  1  0  0  0  0
 15 18  1  0  0  0  0
 15 12  1  0  0  0  0
 16 15  1  0  0  0  0
 17 15  1  0  0  0  0
 19 22  1  0  0  0  0
 20 19  1  0  0  0  0
 21 19  1  0  0  0  0
 23 24  1  6  0  0  0
 23  4  1  0  0  0  0
 23 19  1  0  0  0  0
 23 25  1  0  0  0  0
 25 26  1  0  0  0  0
 27 25  1  0  0  0  0
 28 30  1  0  0  0  0
 28 25  1  0  0  0  0
 28 29  1  0  0  0  0
 31 28  1  0  0  0  0
 32 35  1  0  0  0  0
 32 34  1  0  0  0  0
 32 36  1  0  0  0  0
 33 32  1  0  0  0  0
 36 37  1  6  0  0  0
 36 38  1  0  0  0  0
 38 40  1  0  0  0  0
 38 39  1  0  0  0  0
 38 41  1  0  0  0  0
 41 42  1  0  0  0  0
 43 41  1  0  0  0  0
 44 41  1  0  0  0  0
M  END
