3
q = -2.0, confidence = 0.774

  9  8  0  0  0  0  0  0  0  0999 V2000
   -1.5715    1.2816    0.2703 S   0  0  0  0  0  0  0  0  0  0  0  0
   -3.0432   -0.1376   -2.0160 S   0  0  0  0  0  0  0  0  0  0  0  0
   -0.8619   -0.8668   -2.0067 S   0  0  0  0  0  0  0  0  0  0  0  0
   -6.5029    1.1189   -1.4444 N   0  0  0  0  0  0  0  0  0  0  0  0
   -4.3812    2.8292    2.0350 N   0  0  0  0  0  0  0  0  0  0  0  0
   -3.0495    0.8843   -0.6389 C   0  0  0  0  0  0  0  0  0  0  0  0
   -4.2516    1.4681   -0.1825 C   0  0  0  0  0  0  0  0  0  0  0  0
   -5.4795    1.2774   -0.8819 C   0  0  0  0  0  0  0  0  0  0  0  0
   -4.2974    2.2249    1.0270 C   0  0  0  0  0  0  0  0  0  0  0  0
  2  3  1  0  0  0  0
  2  6  1  0  0  0  0
  4  8  3  0  0  0  0
  6  7  1  0  0  0  0
  6  1  2  0  0  0  0
  7  9  1  0  0  0  0
  8  7  1  0  0  0  0
  9  5  3  0  0  0  0
M  END
