1
q = 0.0, confidence = 0.996

 32 33  0  0  1  0  0  0  0  0999 V2000
   -0.2521    1.7516   -1.3366 S   0  0  0  0  0  1  0  0  0  0  0  0
   -5.4051    0.3052    1.5912 O   0  0  0  0  0  0  0  0  0  0  0  0
   -2.7950    2.2718   -0.4786 N   0  0  0  0  0  0  0  0  0  0  0  0
   -3.6896    1.8072   -0.2789 H   0  0  0  0  0  0  0  0  0  0  0  0
   -2.0904    0.0829   -0.3865 N   0  0  0  0  0  0  0  0  0  0  0  0
   -1.3790   -0.6367   -0.7472 H   0  0  0  0  0  0  0  0  0  0  0  0
   -3.2491   -0.2530    0.2198 N   0  0  0  0  0  0  0  0  0  0  0  0
   -1.7928    1.3778   -0.6739 C   0  0  1  0  0  3  0  0  0  0  0  0
   -3.5352   -1.5253    0.3597 C   0  0  0  0  0  0  0  0  0  0  0  0
   -2.8443   -2.3028   -0.0283 H   0  0  0  0  0  0  0  0  0  0  0  0
   -5.6564   -1.0143    1.6035 C   0  0  0  0  0  0  0  0  0  0  0  0
   -4.7472   -1.9575    1.0167 C   0  0  0  0  0  0  0  0  0  0  0  0
   -5.0555   -3.3405    1.0835 C   0  0  0  0  0  0  0  0  0  0  0  0
   -4.3480   -4.0562    0.6354 H   0  0  0  0  0  0  0  0  0  0  0  0
   -6.2245   -3.7909    1.6952 C   0  0  0  0  0  0  0  0  0  0  0  0
   -6.4509   -4.8658    1.7367 H   0  0  0  0  0  0  0  0  0  0  0  0
   -7.1134   -2.8523    2.2603 C   0  0  0  0  0  0  0  0  0  0  0  0
   -8.0391   -3.1985    2.7448 H   0  0  0  0  0  0  0  0  0  0  0  0
   -6.8342   -1.4832    2.2205 C   0  0  0  0  0  0  0  0  0  0  0  0
   -7.5145   -0.7427    2.6650 H   0  0  0  0  0  0  0  0  0  0  0  0
   -2.8555    3.6792   -0.4406 C   0  0  0  0  0  0  0  0  0  0  0  0
   -1.7369    4.5319   -0.5420 C   0  0  0  0  0  0  0  0  0  0  0  0
   -0.7340    4.1083   -0.6752 H   0  0  0  0  0  0  0  0  0  0  0  0
   -1.9210    5.9196   -0.4661 C   0  0  0  0  0  0  0  0  0  0  0  0
   -1.0405    6.5749   -0.5448 H   0  0  0  0  0  0  0  0  0  0  0  0
   -3.1976    6.4764   -0.2957 C   0  0  0  0  0  0  0  0  0  0  0  0
   -3.3270    7.5674   -0.2442 H   0  0  0  0  0  0  0  0  0  0  0  0
   -4.3087    5.6243   -0.1905 C   0  0  0  0  0  0  0  0  0  0  0  0
   -5.3177    6.0402   -0.0503 H   0  0  0  0  0  0  0  0  0  0  0  0
   -4.1418    4.2377   -0.2604 C   0  0  0  0  0  0  0  0  0  0  0  0
   -5.0143    3.5705   -0.1667 H   0  0  0  0  0  0  0  0  0  0  0  0
   -4.5077    0.4139    1.1540 H   0  0  0  0  0  0  0  0  0  0  0  0
  2 11  1  0  0  0  0
  3 21  1  0  0  0  0
  3  4  1  0  0  0  0
  5  7  1  0  0  0  0
  6  5  1  0  0  0  0
  7  9  2  0  0  0  0
  8  1  1  6  0  0  0
  8  3  1  0  0  0  0
  8  5  1  0  0  0  0
  9 12  1  0  0  0  0
 10  9  1  0  0  0  0
 11 19  1  0  0  0  0
 12 13  1  0  0  0  0
 12 11  2  0  0  0  0
 13 15  2  0  0  0  0
 14 13  1  0  0  0  0
 15 16  1  0  0  0  0
 15 17  1  0  0  0  0
 17 18  1  0  0  0  0
 19 17  2  0  0  0  0
 19 20  1  0  0  0  0
 21 30  1  0  0  0  0
 22 24  1  0  0  0  0
 22 21  2  0  0  0  0
 23 22  1  0  0  0  0
 24 26  2  0  0  0  0
 25 24  1  0  0  0  0
 26 27  1  0  0  0  0
 26 28  1  0  0  0  0
 28 29  1  0  0  0  0
 30 28  2  0  0  0  0
 30 31  1  0  0  0  0
 32  2  1  0  0  0  0
M  END
