1
q = 0.0, confidence = 1.0

 28 28  0  0  1  0  0  0  0  0999 V2000
   -1.8377   -0.6322   -1.4888 S   0  0  0  0  0  1  0  0  0  0  0  0
   -4.2292   -0.5774   -0.1002 N   0  0  0  0  0  0  0  0  0  0  0  0
   -3.1933    1.3528   -0.1030 N   0  0  0  0  0  0  0  0  0  0  0  0
   -3.0958    0.0556   -0.5345 C   0  0  2  0  0  3  0  0  0  0  0  0
   -5.0189    0.3122    0.6084 C   0  0  0  0  0  0  0  0  0  0  0  0
   -5.9715    0.0196    1.0575 H   0  0  0  0  0  0  0  0  0  0  0  0
   -4.3666    1.5190    0.6099 C   0  0  0  0  0  0  0  0  0  0  0  0
   -4.6447    2.4738    1.0634 H   0  0  0  0  0  0  0  0  0  0  0  0
   -4.4636   -2.0295   -0.2193 C   0  0  0  0  0  0  0  0  0  0  0  0
   -3.6162   -2.3727   -0.8493 H   0  0  0  0  0  0  0  0  0  0  0  0
   -5.7812   -2.3075   -0.9418 C   0  0  0  0  0  0  0  0  0  0  0  0
   -5.8060   -1.8178   -1.9353 H   0  0  0  0  0  0  0  0  0  0  0  0
   -5.9008   -3.3984   -1.0915 H   0  0  0  0  0  0  0  0  0  0  0  0
   -6.6555   -1.9555   -0.3552 H   0  0  0  0  0  0  0  0  0  0  0  0
   -4.3533   -2.6879    1.1575 C   0  0  0  0  0  0  0  0  0  0  0  0
   -5.1886   -2.3829    1.8221 H   0  0  0  0  0  0  0  0  0  0  0  0
   -4.3911   -3.7898    1.0492 H   0  0  0  0  0  0  0  0  0  0  0  0
   -3.3944   -2.4026    1.6352 H   0  0  0  0  0  0  0  0  0  0  0  0
   -2.1421    2.3708   -0.2866 C   0  0  0  0  0  0  0  0  0  0  0  0
   -1.2886    1.7920   -0.7013 H   0  0  0  0  0  0  0  0  0  0  0  0
   -2.5837    3.4163   -1.3105 C   0  0  0  0  0  0  0  0  0  0  0  0
   -3.4659    3.9896   -0.9563 H   0  0  0  0  0  0  0  0  0  0  0  0
   -1.7615    4.1373   -1.4902 H   0  0  0  0  0  0  0  0  0  0  0  0
   -2.8373    2.9376   -2.2766 H   0  0  0  0  0  0  0  0  0  0  0  0
   -1.7243    2.9475    1.0662 C   0  0  0  0  0  0  0  0  0  0  0  0
   -1.4506    2.1205    1.7521 H   0  0  0  0  0  0  0  0  0  0  0  0
   -0.8457    3.6090    0.9310 H   0  0  0  0  0  0  0  0  0  0  0  0
   -2.5290    3.5579    1.5265 H   0  0  0  0  0  0  0  0  0  0  0  0
  2  5  1  0  0  0  0
  3  7  1  0  0  0  0
  4  1  1  6  0  0  0
  4  3  1  0  0  0  0
  4  2  1  0  0  0  0
  5  7  2  0  0  0  0
  5  6  1  0  0  0  0
  7  8  1  0  0  0  0
  9  2  1  0  0  0  0
  9 15  1  0  0  0  0
 10  9  1  0  0  0  0
 11 14  1  0  0  0  0
 11  9  1  0  0  0  0
 12 11  1  0  0  0  0
 13 11  1  0  0  0  0
 15 18  1  0  0  0  0
 15 16  1  0  0  0  0
 17 15  1  0  0  0  0
 19  3  1  0  0  0  0
 19 25  1  0  0  0  0
 20 19  1  0  0  0  0
 21 22  1  0  0  0  0
 21 19  1  0  0  0  0
 23 21  1  0  0  0  0
 24 21  1  0  0  0  0
 25 28  1  0  0  0  0
 25 26  1  0  0  0  0
 27 25  1  0  0  0  0
M  END
