1
q = 0.0, confidence = 0.996

 16 17  0  0  0  0  0  0  0  0999 V2000
    1.4633   -2.3011   -1.5553 S   0  0  0  0  0  1  0  0  0  0  0  0
   -0.2193   -2.3103   -1.3929 C   0  0  0  0  0  3  0  0  0  0  0  0
   -0.9898   -3.3083   -0.8465 N   0  0  0  0  0  0  0  0  0  0  0  0
   -0.5676   -4.1370   -0.4274 H   0  0  0  0  0  0  0  0  0  0  0  0
   -1.0902   -1.3158   -1.7505 N   0  0  0  0  0  0  0  0  0  0  0  0
   -0.7406   -0.3852   -2.0546 H   0  0  0  0  0  0  0  0  0  0  0  0
   -2.3268   -2.9340   -0.7985 C   0  0  0  0  0  0  0  0  0  0  0  0
   -2.3876   -1.6387   -1.3821 C   0  0  0  0  0  0  0  0  0  0  0  0
   -3.5983   -0.9418   -1.4832 C   0  0  0  0  0  0  0  0  0  0  0  0
   -3.6459    0.0583   -1.9357 H   0  0  0  0  0  0  0  0  0  0  0  0
   -4.7455   -1.5708   -0.9745 C   0  0  0  0  0  0  0  0  0  0  0  0
   -5.7105   -1.0460   -1.0265 H   0  0  0  0  0  0  0  0  0  0  0  0
   -4.6844   -2.8565   -0.3954 C   0  0  0  0  0  0  0  0  0  0  0  0
   -5.6044   -3.3167   -0.0065 H   0  0  0  0  0  0  0  0  0  0  0  0
   -3.4742   -3.5631   -0.3006 C   0  0  0  0  0  0  0  0  0  0  0  0
   -3.4278   -4.5620    0.1556 H   0  0  0  0  0  0  0  0  0  0  0  0
  1  2  1  0  0  0  0
  2  3  1  0  0  0  0
  3  7  1  0  0  0  0
  3  4  1  0  0  0  0
  5  2  1  0  0  0  0
  5  8  1  0  0  0  0
  6  5  1  0  0  0  0
  7 15  1  0  0  0  0
  8  7  2  0  0  0  0
  9  8  1  0  0  0  0
  9 11  2  0  0  0  0
 10  9  1  0  0  0  0
 11 13  1  0  0  0  0
 12 11  1  0  0  0  0
 13 15  2  0  0  0  0
 13 14  1  0  0  0  0
 15 16  1  0  0  0  0
M  END
