1
q = -1.0, confidence = 0.0

 15 15  0  0  0  0  0  0  0  0999 V2000
    1.8652   -1.2196   -1.6276 S   0  0  0  0  0  1  0  0  0  0  0  0
    2.2374    0.4935   -1.2279 C   0  0  0  0  0  0  0  0  0  0  0  0
    2.8789    0.9058   -0.0299 C   0  0  0  0  0  0  0  0  0  0  0  0
    3.1311    2.2719    0.1875 C   0  0  0  0  0  0  0  0  0  0  0  0
    3.6205    2.5779    1.1218 H   0  0  0  0  0  0  0  0  0  0  0  0
    2.7716    3.2328   -0.7667 C   0  0  0  0  0  0  0  0  0  0  0  0
    2.9757    4.2965   -0.5754 H   0  0  0  0  0  0  0  0  0  0  0  0
    2.1556    2.8286   -1.9591 C   0  0  0  0  0  0  0  0  0  0  0  0
    1.8699    3.5722   -2.7184 H   0  0  0  0  0  0  0  0  0  0  0  0
    1.8897    1.4716   -2.1821 C   0  0  0  0  0  0  0  0  0  0  0  0
    1.3918    1.1413   -3.1053 H   0  0  0  0  0  0  0  0  0  0  0  0
    3.3027   -0.0837    1.0384 C   0  0  0  0  0  0  0  0  0  0  0  0
    4.1234   -1.0390    0.5614 F   0  0  0  0  0  0  0  0  0  0  0  0
    3.9506    0.5283    2.0579 F   0  0  0  0  0  0  0  0  0  0  0  0
    2.2267   -0.7168    1.5994 F   0  0  0  0  0  0  0  0  0  0  0  0
  1  2  1  0  0  0  0
  2  3  1  0  0  0  0
  3  4  2  0  0  0  0
  3 12  1  0  0  0  0
  4  5  1  0  0  0  0
  6  7  1  0  0  0  0
  6  4  1  0  0  0  0
  8  6  2  0  0  0  0
  9  8  1  0  0  0  0
 10  8  1  0  0  0  0
 10  2  2  0  0  0  0
 11 10  1  0  0  0  0
 12 15  1  0  0  0  0
 12 14  1  0  0  0  0
 13 12  1  0  0  0  0
M  END
