1
q = -1.0, confidence = 0.05

 27 28  0  0  0  0  0  0  0  0999 V2000
   -2.2095   -0.4596   -1.6181 S   0  0  0  0  0  1  0  0  0  0  0  0
   -8.5972    2.4876   -0.2994 O   0  0  0  0  0  0  0  0  0  0  0  0
   -2.6700   -1.5374    0.9132 N   0  0  0  0  0  0  0  0  0  0  0  0
   -1.5112   -2.2967    0.9880 C   0  0  0  0  0  0  0  0  0  0  0  0
   -9.0166    1.1390    1.3700 O   0  0  0  0  0  0  0  0  0  0  0  0
   -8.2961    1.5805    0.4756 N   0  0  0  0  0  0  0  0  0  0  0  0
   -0.6338   -2.1086    2.0862 C   0  0  0  0  0  0  0  0  0  0  0  0
   -0.8890   -1.3436    2.8330 H   0  0  0  0  0  0  0  0  0  0  0  0
    0.5274   -2.8814    2.2091 C   0  0  0  0  0  0  0  0  0  0  0  0
    1.2076   -2.7060    3.0560 H   0  0  0  0  0  0  0  0  0  0  0  0
    0.8229   -3.8806    1.2669 C   0  0  0  0  0  0  0  0  0  0  0  0
    1.7331   -4.4887    1.3714 H   0  0  0  0  0  0  0  0  0  0  0  0
   -0.0569   -4.1010    0.1943 C   0  0  0  0  0  0  0  0  0  0  0  0
    0.1564   -4.8922   -0.5405 H   0  0  0  0  0  0  0  0  0  0  0  0
   -1.2067   -3.3130    0.0400 C   0  0  0  0  0  0  0  0  0  0  0  0
   -1.8929   -3.4787   -0.8028 H   0  0  0  0  0  0  0  0  0  0  0  0
   -3.0691   -0.8121   -0.0754 C   0  0  0  0  0  0  0  0  0  0  0  0
   -4.4217   -0.1790    0.0272 C   0  0  0  0  0  0  0  0  0  0  0  0
   -5.3022   -0.6316    1.0380 C   0  0  0  0  0  0  0  0  0  0  0  0
   -4.9592   -1.4383    1.7009 H   0  0  0  0  0  0  0  0  0  0  0  0
   -6.5680   -0.0626    1.1891 C   0  0  0  0  0  0  0  0  0  0  0  0
   -7.2717   -0.3962    1.9631 H   0  0  0  0  0  0  0  0  0  0  0  0
   -6.9514    0.9687    0.3198 C   0  0  0  0  0  0  0  0  0  0  0  0
   -6.1043    1.4408   -0.6899 C   0  0  0  0  0  0  0  0  0  0  0  0
   -6.4516    2.2539   -1.3407 H   0  0  0  0  0  0  0  0  0  0  0  0
   -4.8386    0.8619   -0.8319 C   0  0  0  0  0  0  0  0  0  0  0  0
   -4.1509    1.2251   -1.6092 H   0  0  0  0  0  0  0  0  0  0  0  0
  1 17  1  0  0  0  0
  2  6  2  0  0  0  0
  3  4  1  0  0  0  0
  4  7  1  0  0  0  0
  6  5  2  0  0  0  0
  7  9  2  0  0  0  0
  7  8  1  0  0  0  0
  9 10  1  0  0  0  0
 11 12  1  0  0  0  0
 11  9  1  0  0  0  0
 13 11  2  0  0  0  0
 14 13  1  0  0  0  0
 15 13  1  0  0  0  0
 15  4  2  0  0  0  0
 16 15  1  0  0  0  0
 17 18  1  0  0  0  0
 17  3  2  0  0  0  0
 18 19  1  0  0  0  0
 19 21  2  0  0  0  0
 19 20  1  0  0  0  0
 21 22  1  0  0  0  0
 23  6  1  0  0  0  0
 23 21  1  0  0  0  0
 24 23  2  0  0  0  0
 25 24  1  0  0  0  0
 26 24  1  0  0  0  0
 26 18  2  0  0  0  0
 27 26  1  0  0  0  0
M  END
