1
q = -1.0, confidence = 0.0

 16 17  0  0  0  0  0  0  0  0999 V2000
   -1.0388    3.0715   -0.5786 S   0  0  0  0  0  1  0  0  0  0  0  0
   -3.5261    2.0433   -0.5685 O   0  0  0  0  0  0  0  0  0  0  0  0
   -8.3364    0.3063   -0.7114 N   0  0  0  0  0  0  0  0  0  0  0  0
   -3.2506    0.0178    0.3070 N   0  0  0  0  0  0  0  0  0  0  0  0
   -2.0234    0.6351    0.2627 N   0  0  0  0  0  0  0  0  0  0  0  0
   -2.2093    1.8415   -0.2623 C   0  0  0  0  0  0  0  0  0  0  0  0
   -4.1250    0.8619   -0.1886 C   0  0  0  0  0  0  0  0  0  0  0  0
   -5.5572    0.6871   -0.3698 C   0  0  0  0  0  0  0  0  0  0  0  0
   -6.3630    1.6954   -0.9384 C   0  0  0  0  0  0  0  0  0  0  0  0
   -5.9231    2.6501   -1.2600 H   0  0  0  0  0  0  0  0  0  0  0  0
   -7.7360    1.4483   -1.0824 C   0  0  0  0  0  0  0  0  0  0  0  0
   -8.3870    2.2234   -1.5253 H   0  0  0  0  0  0  0  0  0  0  0  0
   -7.5594   -0.6484   -0.1692 C   0  0  0  0  0  0  0  0  0  0  0  0
   -8.0682   -1.5816    0.1316 H   0  0  0  0  0  0  0  0  0  0  0  0
   -6.1793   -0.5173    0.0253 C   0  0  0  0  0  0  0  0  0  0  0  0
   -5.5824   -1.3237    0.4748 H   0  0  0  0  0  0  0  0  0  0  0  0
  1  6  1  0  0  0  0
  2  6  1  0  0  0  0
  2  7  1  0  0  0  0
  3 13  1  0  0  0  0
  5  4  1  0  0  0  0
  6  5  2  0  0  0  0
  7  4  2  0  0  0  0
  8  7  1  0  0  0  0
  8 15  1  0  0  0  0
  9  8  2  0  0  0  0
 10  9  1  0  0  0  0
 11  9  1  0  0  0  0
 11  3  2  0  0  0  0
 12 11  1  0  0  0  0
 13 15  2  0  0  0  0
 13 14  1  0  0  0  0
 15 16  1  0  0  0  0
M  END
