1
q = -1.0, confidence = 0.0

 18 18  0  0  0  0  0  0  0  0999 V2000
   -0.3903   -2.2040   -0.0555 S   0  0  0  0  0  1  0  0  0  0  0  0
   -2.3237   -0.3797   -0.1020 N   0  0  0  0  0  0  0  0  0  0  0  0
   -4.5523   -0.1818    0.9426 C   0  0  0  0  0  0  0  0  0  0  0  0
   -5.8063    0.4436    0.9869 C   0  0  0  0  0  0  0  0  0  0  0  0
   -6.1474    1.4236    0.0416 C   0  0  0  0  0  0  0  0  0  0  0  0
   -5.2130    1.7861   -0.9442 C   0  0  0  0  0  0  0  0  0  0  0  0
   -3.9534    1.1777   -0.9873 C   0  0  0  0  0  0  0  0  0  0  0  0
   -3.6109    0.1700   -0.0548 C   0  0  0  0  0  0  0  0  0  0  0  0
   -2.0685   -1.6507   -0.1149 C   0  0  0  0  0  0  0  0  0  0  0  0
   -3.0807   -2.7704   -0.2077 C   0  0  0  0  0  0  0  0  0  0  0  0
   -4.2785   -0.9309    1.7001 H   0  0  0  0  0  0  0  0  0  0  0  0
   -6.5234    0.1631    1.7738 H   0  0  0  0  0  0  0  0  0  0  0  0
   -7.1326    1.9117    0.0790 H   0  0  0  0  0  0  0  0  0  0  0  0
   -5.4665    2.5603   -1.6847 H   0  0  0  0  0  0  0  0  0  0  0  0
   -3.2097    1.4657   -1.7449 H   0  0  0  0  0  0  0  0  0  0  0  0
   -4.0679   -2.3870   -0.5293 H   0  0  0  0  0  0  0  0  0  0  0  0
   -2.7295   -3.5439   -0.9182 H   0  0  0  0  0  0  0  0  0  0  0  0
   -3.2020   -3.2660    0.7774 H   0  0  0  0  0  0  0  0  0  0  0  0
  2  8  1  0  0  0  0
  3  4  1  0  0  0  0
  3 11  1  0  0  0  0
  4 12  1  0  0  0  0
  5 13  1  0  0  0  0
  5  4  2  0  0  0  0
  6  5  1  0  0  0  0
  7  6  2  0  0  0  0
  7  8  1  0  0  0  0
  8  3  2  0  0  0  0
  9  2  2  0  0  0  0
  9  1  1  0  0  0  0
 10  9  1  0  0  0  0
 10 18  1  0  0  0  0
 14  6  1  0  0  0  0
 15  7  1  0  0  0  0
 16 10  1  0  0  0  0
 17 10  1  0  0  0  0
M  END
