1
q = 0.0, confidence = 1.0

 17 17  0  0  1  0  0  0  0  0999 V2000
    0.3464    0.2169   -2.0182 S   0  0  0  0  0  1  0  0  0  0  0  0
   -1.0749    1.9704   -0.5482 N   0  0  0  0  0  0  0  0  0  0  0  0
   -2.2810    0.6210   -2.0553 N   0  0  0  0  0  0  0  0  0  0  0  0
   -2.2201   -0.1005   -2.7819 H   0  0  0  0  0  0  0  0  0  0  0  0
   -1.0642    1.0145   -1.5034 C   0  0  2  0  0  3  0  0  0  0  0  0
   -2.2367    2.4143   -0.0602 C   0  0  0  0  0  0  0  0  0  0  0  0
   -3.4928    1.9667   -0.5691 C   0  0  0  0  0  0  0  0  0  0  0  0
   -4.4391    2.3338   -0.1523 H   0  0  0  0  0  0  0  0  0  0  0  0
   -3.4963    1.0545   -1.6105 C   0  0  0  0  0  0  0  0  0  0  0  0
   -4.7188    0.4972   -2.2683 C   0  0  0  0  0  0  0  0  0  0  0  0
   -5.6326    0.9320   -1.8259 H   0  0  0  0  0  0  0  0  0  0  0  0
   -4.7575   -0.6037   -2.1370 H   0  0  0  0  0  0  0  0  0  0  0  0
   -4.7183    0.7105   -3.3576 H   0  0  0  0  0  0  0  0  0  0  0  0
   -2.1655    3.3408    1.1082 C   0  0  0  0  0  0  0  0  0  0  0  0
   -3.1069    3.8946    1.2784 H   0  0  0  0  0  0  0  0  0  0  0  0
   -1.3113    4.0351    0.9997 H   0  0  0  0  0  0  0  0  0  0  0  0
   -1.9451    2.7040    1.9970 H   0  0  0  0  0  0  0  0  0  0  0  0
  2  6  2  0  0  0  0
  3  9  1  0  0  0  0
  3  5  1  0  0  0  0
  4  3  1  0  0  0  0
  5  1  1  1  0  0  0
  5  2  1  0  0  0  0
  6 14  1  0  0  0  0
  7  8  1  0  0  0  0
  7  6  1  0  0  0  0
  9  7  2  0  0  0  0
 10 12  1  0  0  0  0
 10 11  1  0  0  0  0
 10  9  1  0  0  0  0
 13 10  1  0  0  0  0
 14 15  1  0  0  0  0
 14 17  1  0  0  0  0
 16 14  1  0  0  0  0
M  END
