1
q = -1.0, confidence = 0.0

 18 18  0  0  0  0  0  0  0  0999 V2000
    0.2639    2.8789   -0.0242 S   0  0  0  0  0  1  0  0  0  0  0  0
    2.8800    3.1672   -0.1033 N   0  0  0  0  0  4  0  0  0  0  0  0
    2.2968    0.9500   -0.0570 N   0  0  0  0  0  2  0  0  0  0  0  0
    1.3245    0.0048    0.0053 N   0  0  0  0  0  0  0  0  0  0  0  0
    3.4152   -3.1653    0.1826 C   0  0  0  0  0  0  0  0  0  0  0  0
    1.9044    2.2118   -0.0717 C   0  0  0  0  0  0  0  0  0  0  0  0
    1.6783   -1.2590    0.0773 C   0  0  0  0  0  0  0  0  0  0  0  0
    2.9994   -1.8182    0.1069 C   0  0  0  0  0  0  0  0  0  0  0  0
    4.1428   -1.0406    0.0619 N   0  0  0  0  0  0  0  0  0  0  0  0
    5.2503   -1.8324    0.1056 C   0  0  0  0  0  0  0  0  0  0  0  0
    4.8306   -3.1691    0.1813 C   0  0  0  0  0  0  0  0  0  0  0  0
    3.8373    2.8694   -0.2920 H   0  0  0  0  0  0  0  0  0  0  0  0
    2.6169    4.1310   -0.2992 H   0  0  0  0  0  0  0  0  0  0  0  0
    2.7478   -4.0331    0.2333 H   0  0  0  0  0  0  0  0  0  0  0  0
    0.8386   -1.9726    0.1253 H   0  0  0  0  0  0  0  0  0  0  0  0
    4.0259   -0.0161    0.0042 H   0  0  0  0  0  0  0  0  0  0  0  0
    6.2596   -1.4064    0.0817 H   0  0  0  0  0  0  0  0  0  0  0  0
    5.4890   -4.0434    0.2307 H   0  0  0  0  0  0  0  0  0  0  0  0
  2  6  2  0  0  0  0
  3  4  1  0  0  0  0
  4  7  2  0  0  0  0
  5 14  1  0  0  0  0
  6  3  1  0  0  0  0
  6  1  1  0  0  0  0
  7  8  1  0  0  0  0
  7 15  1  0  0  0  0
  8  5  2  0  0  0  0
  9 10  1  0  0  0  0
  9  8  1  0  0  0  0
 10 11  2  0  0  0  0
 11  5  1  0  0  0  0
 11 18  1  0  0  0  0
 12  2  1  0  0  0  0
 13  2  1  0  0  0  0
 16  9  1  0  0  0  0
 17 10  1  0  0  0  0
M  END
