1
q = 0.0, confidence = 0.996

 12 12  0  0  0  0  0  0  0  0999 V2000
   -1.2760   -0.0022    0.6162 S   0  0  2  0  0  3  0  0  0  0  0  0
   -1.5863   -0.0081    2.0891 O   0  0  0  0  0  1  0  0  0  0  0  0
   -2.3312    1.3356   -0.1535 C   0  0  0  0  0  0  0  0  0  0  0  0
   -3.6425    0.6761   -0.4459 C   0  0  0  0  0  0  0  0  0  0  0  0
   -3.6426   -0.6719   -0.4513 C   0  0  0  0  0  0  0  0  0  0  0  0
   -2.3313   -1.3338   -0.1641 C   0  0  0  0  0  0  0  0  0  0  0  0
   -2.3629    2.1364    0.6132 H   0  0  0  0  0  0  0  0  0  0  0  0
   -1.8102    1.7200   -1.0562 H   0  0  0  0  0  0  0  0  0  0  0  0
   -4.5437    1.2791   -0.6377 H   0  0  0  0  0  0  0  0  0  0  0  0
   -4.5437   -1.2733   -0.6478 H   0  0  0  0  0  0  0  0  0  0  0  0
   -2.3631   -2.1405    0.5965 H   0  0  0  0  0  0  0  0  0  0  0  0
   -1.8104   -1.7113   -1.0697 H   0  0  0  0  0  0  0  0  0  0  0  0
  1  2  1  1  0  0  0
  3  7  1  0  0  0  0
  3  1  1  0  0  0  0
  4  3  1  0  0  0  0
  5  4  2  0  0  0  0
  5  6  1  0  0  0  0
  6 11  1  0  0  0  0
  6  1  1  0  0  0  0
  8  3  1  0  0  0  0
  9  4  1  0  0  0  0
 10  5  1  0  0  0  0
 12  6  1  0  0  0  0
M  END
