12
q = 0.0, confidence = 0.99

 16 16  0  0  1  0  0  0  0  0999 V2000
    3.1032    0.9162   -0.0398 C   0  0  2  0  0  3  0  0  0  0  0  0
    5.0602   -0.8184    0.2598 C   0  0  0  0  0  0  0  0  0  0  0  0
    5.6804    0.4115    0.1251 C   0  0  0  0  0  0  0  0  0  0  0  0
    6.3449   -2.7938   -1.1895 C   0  0  0  0  0  0  0  0  0  0  0  0
    6.9604   -2.0057   -1.6627 H   0  0  0  0  0  0  0  0  0  0  0  0
    6.9423   -3.7216   -1.1006 H   0  0  0  0  0  0  0  0  0  0  0  0
    5.4346   -2.9977   -1.7836 H   0  0  0  0  0  0  0  0  0  0  0  0
    7.6382    2.3643   -0.0923 C   0  0  0  0  0  0  0  0  0  0  0  0
    7.1743    2.9589    0.7192 H   0  0  0  0  0  0  0  0  0  0  0  0
    8.7329    2.5235   -0.0677 H   0  0  0  0  0  0  0  0  0  0  0  0
    7.2542    2.6753   -1.0837 H   0  0  0  0  0  0  0  0  0  0  0  0
    1.6309    1.7503   -0.1862 S   0  0  0  0  0  1  0  0  0  0  0  0
    3.2979   -0.7800    0.1851 S   0  0  0  0  0  0  0  0  0  0  0  0
    4.6144    1.7932   -0.1081 S   0  0  0  0  0  0  0  0  0  0  0  0
    5.9116   -2.3285    0.5320 S   0  0  0  0  0  0  0  0  0  0  0  0
    7.4206    0.5763    0.1830 S   0  0  0  0  0  0  0  0  0  0  0  0
  1 12  1  1  0  0  0
  1 13  1  0  0  0  0
  2 15  1  0  0  0  0
  3 16  1  0  0  0  0
  3  2  2  0  0  0  0
  4  6  1  0  0  0  0
  4 15  1  0  0  0  0
  5  4  1  0  0  0  0
  7  4  1  0  0  0  0
  8 10  1  0  0  0  0
  8 16  1  0  0  0  0
  8  9  1  0  0  0  0
 11  8  1  0  0  0  0
 13  2  1  0  0  0  0
 14  1  1  0  0  0  0
 14  3  1  0  0  0  0
M  END
