1
q = 0.0, confidence = 0.998

 20 20  0  0  1  0  0  0  0  0999 V2000
   -2.7842    0.4773   -2.2861 S   0  0  0  0  0  1  0  0  0  0  0  0
   -5.6573   -0.1349   -1.5615 S   0  0  0  0  0  0  0  0  0  0  0  0
   -3.5428   -0.6361    0.0085 N   0  0  0  0  0  0  0  0  0  0  0  0
   -3.9302   -0.1189   -1.1778 C   0  0  1  0  0  3  0  0  0  0  0  0
   -5.6707    0.5226   -3.2503 C   0  0  0  0  0  0  0  0  0  0  0  0
   -4.2546   -1.1477    1.1124 C   0  0  0  0  0  0  0  0  0  0  0  0
   -5.5442   -0.7153    1.4868 C   0  0  0  0  0  0  0  0  0  0  0  0
   -6.1619   -1.2717    2.6159 C   0  0  0  0  0  0  0  0  0  0  0  0
   -5.5075   -2.2425    3.3888 C   0  0  0  0  0  0  0  0  0  0  0  0
   -4.2119   -2.6507    3.0292 C   0  0  0  0  0  0  0  0  0  0  0  0
   -3.5850   -2.1115    1.9016 C   0  0  0  0  0  0  0  0  0  0  0  0
   -6.7415    0.5579   -3.5296 H   0  0  0  0  0  0  0  0  0  0  0  0
   -5.2296    1.5368   -3.2769 H   0  0  0  0  0  0  0  0  0  0  0  0
   -5.1137   -0.1416   -3.9373 H   0  0  0  0  0  0  0  0  0  0  0  0
   -2.5085   -0.7599    0.0728 H   0  0  0  0  0  0  0  0  0  0  0  0
   -6.0543    0.0740    0.9192 H   0  0  0  0  0  0  0  0  0  0  0  0
   -7.1679   -0.9266    2.8991 H   0  0  0  0  0  0  0  0  0  0  0  0
   -6.0002   -2.6720    4.2737 H   0  0  0  0  0  0  0  0  0  0  0  0
   -3.6808   -3.4021    3.6330 H   0  0  0  0  0  0  0  0  0  0  0  0
   -2.5682   -2.4189    1.6118 H   0  0  0  0  0  0  0  0  0  0  0  0
  2  4  1  0  0  0  0
  3 15  1  0  0  0  0
  3  6  1  0  0  0  0
  4  1  1  6  0  0  0
  4  3  1  0  0  0  0
  5  2  1  0  0  0  0
  6  7  2  0  0  0  0
  6 11  1  0  0  0  0
  7  8  1  0  0  0  0
  8 17  1  0  0  0  0
  8  9  2  0  0  0  0
  9 18  1  0  0  0  0
 10  9  1  0  0  0  0
 10 19  1  0  0  0  0
 11 10  2  0  0  0  0
 12  5  1  0  0  0  0
 13  5  1  0  0  0  0
 14  5  1  0  0  0  0
 16  7  1  0  0  0  0
 20 11  1  0  0  0  0
M  END
