1
q = -1.0, confidence = 0.0

 34 38  0  0  1  0  0  0  0  0999 V2000
   -0.1794    2.2240   -0.2030 S   0  0  0  0  0  1  0  0  0  0  0  0
   -1.8391    1.4673    0.0199 C   0  0  2  0  0  0  0  0  0  0  0  0
   -2.9446    2.5246    0.2659 C   0  0  0  0  0  0  0  0  0  0  0  0
   -2.7619    3.9081    0.3418 C   0  0  0  0  0  0  0  0  0  0  0  0
   -1.7491    4.3204    0.2213 H   0  0  0  0  0  0  0  0  0  0  0  0
   -3.8730    4.7417    0.5722 C   0  0  0  0  0  0  0  0  0  0  0  0
   -3.7310    5.8318    0.6320 H   0  0  0  0  0  0  0  0  0  0  0  0
   -5.1550    4.1941    0.7263 C   0  0  0  0  0  0  0  0  0  0  0  0
   -6.0188    4.8523    0.9065 H   0  0  0  0  0  0  0  0  0  0  0  0
   -5.3406    2.8006    0.6515 C   0  0  0  0  0  0  0  0  0  0  0  0
   -6.3438    2.3621    0.7724 H   0  0  0  0  0  0  0  0  0  0  0  0
   -4.2376    1.9729    0.4219 C   0  0  0  0  0  0  0  0  0  0  0  0
   -4.2623    0.4486    0.3149 C   0  0  2  0  0  0  0  0  0  0  0  0
   -5.2766    0.0256    0.4398 H   0  0  0  0  0  0  0  0  0  0  0  0
   -3.2791   -0.0415    1.3691 C   0  0  0  0  0  0  0  0  0  0  0  0
   -3.5789   -0.8959    2.4357 C   0  0  0  0  0  0  0  0  0  0  0  0
   -4.5944   -1.3101    2.5400 H   0  0  0  0  0  0  0  0  0  0  0  0
   -2.5835   -1.1989    3.3837 C   0  0  0  0  0  0  0  0  0  0  0  0
   -2.8171   -1.8609    4.2320 H   0  0  0  0  0  0  0  0  0  0  0  0
   -1.3044   -0.6394    3.2566 C   0  0  0  0  0  0  0  0  0  0  0  0
   -0.5324   -0.8550    4.0109 H   0  0  0  0  0  0  0  0  0  0  0  0
   -1.0018    0.2117    2.1770 C   0  0  0  0  0  0  0  0  0  0  0  0
   -0.0095    0.6817    2.0770 H   0  0  0  0  0  0  0  0  0  0  0  0
   -1.9831    0.5073    1.2254 C   0  0  0  0  0  0  0  0  0  0  0  0
   -2.3566    0.6843   -1.2101 C   0  0  0  0  0  0  0  0  0  0  0  0
   -1.7027    0.5565   -2.4387 C   0  0  0  0  0  0  0  0  0  0  0  0
   -0.7137    1.0264   -2.5516 H   0  0  0  0  0  0  0  0  0  0  0  0
   -2.3286   -0.1347   -3.4934 C   0  0  0  0  0  0  0  0  0  0  0  0
   -1.8173   -0.2240   -4.4646 H   0  0  0  0  0  0  0  0  0  0  0  0
   -3.6011   -0.6994   -3.3185 C   0  0  0  0  0  0  0  0  0  0  0  0
   -4.0874   -1.2360   -4.1479 H   0  0  0  0  0  0  0  0  0  0  0  0
   -4.2668   -0.5640   -2.0852 C   0  0  0  0  0  0  0  0  0  0  0  0
   -5.2746   -0.9857   -1.9444 H   0  0  0  0  0  0  0  0  0  0  0  0
   -3.6478    0.1330   -1.0420 C   0  0  0  0  0  0  0  0  0  0  0  0
  2  1  1  6  0  0  0
  2  3  1  0  0  0  0
  2 24  1  0  0  0  0
  3  4  2  0  0  0  0
  3 12  1  0  0  0  0
  4  6  1  0  0  0  0
  5  4  1  0  0  0  0
  6  7  1  0  0  0  0
  6  8  2  0  0  0  0
  8  9  1  0  0  0  0
 10  8  1  0  0  0  0
 10 11  1  0  0  0  0
 12 10  2  0  0  0  0
 13 12  1  0  0  0  0
 13 14  1  1  0  0  0
 13 15  1  0  0  0  0
 15 16  1  0  0  0  0
 16 17  1  0  0  0  0
 16 18  2  0  0  0  0
 18 19  1  0  0  0  0
 20 18  1  0  0  0  0
 20 21  1  0  0  0  0
 22 20  2  0  0  0  0
 23 22  1  0  0  0  0
 24 15  2  0  0  0  0
 24 22  1  0  0  0  0
 25 34  1  0  0  0  0
 25  2  1  0  0  0  0
 26 25  2  0  0  0  0
 27 26  1  0  0  0  0
 28 30  2  0  0  0  0
 28 26  1  0  0  0  0
 29 28  1  0  0  0  0
 30 32  1  0  0  0  0
 31 30  1  0  0  0  0
 32 33  1  0  0  0  0
 32 34  2  0  0  0  0
 34 13  1  0  0  0  0
M  END
