1
q = -1.0, confidence = 0.0

 19 18  0  0  0  0  0  0  0  0999 V2000
   -2.2014   -0.0624   -1.3919 S   0  0  0  0  0  1  0  0  0  0  0  0
   -2.9419   -0.0480    0.5630 P   0  0  0  0  0  0  0  0  0  0  0  0
   -2.5725    1.1627    1.3889 O   0  0  0  0  0  0  0  0  0  0  0  0
   -4.5424   -0.3370    0.4651 O   0  0  0  0  0  0  0  0  0  0  0  0
   -2.4017   -1.4884    1.1296 O   0  0  0  0  0  0  0  0  0  0  0  0
   -5.4816    0.7703    0.4769 C   0  0  0  0  0  0  0  0  0  0  0  0
   -5.7807    1.2588   -0.9287 C   0  0  0  0  0  0  0  0  0  0  0  0
   -2.6942   -1.8228    2.5121 C   0  0  0  0  0  0  0  0  0  0  0  0
   -1.6632   -2.8264    2.9847 C   0  0  0  0  0  0  0  0  0  0  0  0
   -6.3903    0.3673    0.9667 H   0  0  0  0  0  0  0  0  0  0  0  0
   -5.0706    1.5791    1.1171 H   0  0  0  0  0  0  0  0  0  0  0  0
   -6.5564    2.0503   -0.8992 H   0  0  0  0  0  0  0  0  0  0  0  0
   -6.1537    0.4315   -1.5640 H   0  0  0  0  0  0  0  0  0  0  0  0
   -4.8755    1.6814   -1.4103 H   0  0  0  0  0  0  0  0  0  0  0  0
   -1.8816   -3.1373    4.0256 H   0  0  0  0  0  0  0  0  0  0  0  0
   -1.6729   -3.7331    2.3467 H   0  0  0  0  0  0  0  0  0  0  0  0
   -0.6451   -2.3885    2.9592 H   0  0  0  0  0  0  0  0  0  0  0  0
   -3.7232   -2.2384    2.5595 H   0  0  0  0  0  0  0  0  0  0  0  0
   -2.6661   -0.8950    3.1226 H   0  0  0  0  0  0  0  0  0  0  0  0
  1  2  1  0  0  0  0
  2  5  1  0  0  0  0
  2  3  2  0  0  0  0
  4  6  1  0  0  0  0
  4  2  1  0  0  0  0
  5  8  1  0  0  0  0
  6 10  1  0  0  0  0
  6 11  1  0  0  0  0
  7 12  1  0  0  0  0
  7  6  1  0  0  0  0
  8 18  1  0  0  0  0
  8  9  1  0  0  0  0
  8 19  1  0  0  0  0
  9 15  1  0  0  0  0
 13  7  1  0  0  0  0
 14  7  1  0  0  0  0
 16  9  1  0  0  0  0
 17  9  1  0  0  0  0
M  END
