1
q = 0.0, confidence = 0.996

 22 22  0  0  0  0  0  0  0  0999 V2000
   -0.1795   -0.1849   -1.9591 S   0  0  0  0  0  1  0  0  0  0  0  0
    5.4920   -3.3477   -0.8203 N   0  0  0  0  0  0  0  0  0  0  0  0
    3.1873   -1.8552   -0.7350 N   0  0  0  0  0  0  0  0  0  0  0  0
    1.9761   -1.2295   -0.7103 N   0  0  0  0  0  0  0  0  0  0  0  0
    1.9900   -1.3246   -3.0083 N   0  0  0  0  0  4  0  0  0  0  0  0
    6.7113   -3.9418   -0.6510 C   0  0  0  0  0  0  0  0  0  0  0  0
    7.2002   -3.5696    0.6044 C   0  0  0  0  0  0  0  0  0  0  0  0
    6.2275   -2.7260    1.2009 C   0  0  0  0  0  0  0  0  0  0  0  0
    5.1620   -2.5951    0.2914 C   0  0  0  0  0  0  0  0  0  0  0  0
    3.9163   -1.8553    0.3568 C   0  0  0  0  0  0  0  0  0  0  0  0
    1.3539   -0.9606   -1.8809 C   0  0  0  0  0  0  0  0  0  0  0  0
    3.5420   -1.1378    1.6214 C   0  0  0  0  0  0  0  0  0  0  0  0
    7.1439   -4.5879   -1.4228 H   0  0  0  0  0  0  0  0  0  0  0  0
    8.1582   -3.8783    1.0364 H   0  0  0  0  0  0  0  0  0  0  0  0
    6.2934   -2.2472    2.1835 H   0  0  0  0  0  0  0  0  0  0  0  0
    4.8646   -3.4346   -1.6194 H   0  0  0  0  0  0  0  0  0  0  0  0
    1.4912   -0.9442    0.1704 H   0  0  0  0  0  0  0  0  0  0  0  0
    2.9397   -1.6950   -2.9142 H   0  0  0  0  0  0  0  0  0  0  0  0
    1.5999   -1.0395   -3.9039 H   0  0  0  0  0  0  0  0  0  0  0  0
    2.6133   -1.5539    2.0658 H   0  0  0  0  0  0  0  0  0  0  0  0
    3.3409   -0.0648    1.4038 H   0  0  0  0  0  0  0  0  0  0  0  0
    4.3408   -1.2004    2.3793 H   0  0  0  0  0  0  0  0  0  0  0  0
  1 11  1  0  0  0  0
  2  6  1  0  0  0  0
  2  9  1  0  0  0  0
  3  4  1  0  0  0  0
  3 10  2  0  0  0  0
  4 17  1  0  0  0  0
  5 18  1  0  0  0  0
  5 11  2  0  0  0  0
  6  7  2  0  0  0  0
  7 14  1  0  0  0  0
  7  8  1  0  0  0  0
  8 15  1  0  0  0  0
  9 10  1  0  0  0  0
  9  8  2  0  0  0  0
 10 12  1  0  0  0  0
 11  4  1  0  0  0  0
 12 20  1  0  0  0  0
 12 22  1  0  0  0  0
 13  6  1  0  0  0  0
 16  2  1  0  0  0  0
 19  5  1  0  0  0  0
 21 12  1  0  0  0  0
M  END
