1
q = 0.0, confidence = 0.964

 42 42  0  0  0  0  0  0  0  0999 V2000
    1.2230   -0.1870   -1.4684 S   0  0  0  0  0  0  0  0  0  0  0  0
   -0.0348    2.4291   -0.0679 S   0  0  0  0  0  0  0  0  0  0  0  0
   -2.3124    1.0330   -1.4893 O   0  0  0  0  0  0  0  0  0  0  0  0
   -2.4623    1.5040    1.2732 O   0  0  0  0  0  0  0  0  0  0  0  0
   -0.0185   -0.2758    1.9138 O   0  0  0  0  0  0  0  0  0  0  0  0
    2.4368   -1.7000    0.7711 O   0  0  0  0  0  0  0  0  0  0  0  0
    4.8269    0.4956   -0.4839 N   0  0  0  0  0  0  0  0  0  0  0  0
    3.0258    3.6715    1.5514 N   0  0  0  0  0  0  0  0  0  0  0  0
    2.2729    0.9478   -0.5701 C   0  0  0  0  0  0  0  0  0  0  0  0
    1.6919    2.0735   -0.0098 C   0  0  0  0  0  0  0  0  0  0  0  0
   -0.4713    2.6693   -1.8562 C   0  0  0  0  0  0  0  0  0  0  0  0
   -0.9033    3.6899   -1.8651 H   0  0  0  0  0  0  0  0  0  0  0  0
    0.4627    2.7068   -2.4506 H   0  0  0  0  0  0  0  0  0  0  0  0
   -1.4534    1.6209   -2.4306 C   0  0  0  0  0  0  0  0  0  0  0  0
   -2.0165    2.1145   -3.2614 H   0  0  0  0  0  0  0  0  0  0  0  0
   -0.8990    0.7681   -2.8679 H   0  0  0  0  0  0  0  0  0  0  0  0
   -3.3177    1.8343   -0.8965 C   0  0  0  0  0  0  0  0  0  0  0  0
   -4.2447    1.8387   -1.5184 H   0  0  0  0  0  0  0  0  0  0  0  0
   -2.9897    2.8935   -0.7692 H   0  0  0  0  0  0  0  0  0  0  0  0
   -3.6030    1.2501    0.4761 C   0  0  0  0  0  0  0  0  0  0  0  0
   -4.5206    1.7216    0.9071 H   0  0  0  0  0  0  0  0  0  0  0  0
   -3.7815    0.1543    0.3776 H   0  0  0  0  0  0  0  0  0  0  0  0
   -2.2687    0.6758    2.3958 C   0  0  0  0  0  0  0  0  0  0  0  0
   -2.6421   -0.3574    2.2143 H   0  0  0  0  0  0  0  0  0  0  0  0
   -2.7982    1.0876    3.2923 H   0  0  0  0  0  0  0  0  0  0  0  0
   -0.7962    0.6107    2.7543 C   0  0  0  0  0  0  0  0  0  0  0  0
   -0.3459    1.6282    2.7236 H   0  0  0  0  0  0  0  0  0  0  0  0
   -0.7180    0.2283    3.7949 H   0  0  0  0  0  0  0  0  0  0  0  0
    1.1395   -0.7999    2.5908 C   0  0  0  0  0  0  0  0  0  0  0  0
    0.8416   -1.0664    3.6292 H   0  0  0  0  0  0  0  0  0  0  0  0
    1.9259   -0.0130    2.6442 H   0  0  0  0  0  0  0  0  0  0  0  0
    1.6948   -2.0440    1.9274 C   0  0  0  0  0  0  0  0  0  0  0  0
    2.3510   -2.5569    2.6706 H   0  0  0  0  0  0  0  0  0  0  0  0
    0.8519   -2.7303    1.6805 H   0  0  0  0  0  0  0  0  0  0  0  0
    2.2775   -2.5250   -0.3635 C   0  0  0  0  0  0  0  0  0  0  0  0
    1.2991   -3.0561   -0.3317 H   0  0  0  0  0  0  0  0  0  0  0  0
    3.0888   -3.2898   -0.4315 H   0  0  0  0  0  0  0  0  0  0  0  0
    2.3214   -1.6581   -1.6181 C   0  0  0  0  0  0  0  0  0  0  0  0
    1.9174   -2.2021   -2.4924 H   0  0  0  0  0  0  0  0  0  0  0  0
    3.3355   -1.2795   -1.8499 H   0  0  0  0  0  0  0  0  0  0  0  0
    2.4488    2.9440    0.8289 C   0  0  0  0  0  0  0  0  0  0  0  0
    3.6702    0.7111   -0.4992 C   0  0  0  0  0  0  0  0  0  0  0  0
  1  9  1  0  0  0  0
  2 10  1  0  0  0  0
  3 17  1  0  0  0  0
  4 23  1  0  0  0  0
  5 29  1  0  0  0  0
  5 26  1  0  0  0  0
  6 32  1  0  0  0  0
  9 42  1  0  0  0  0
  9 10  2  0  0  0  0
 10 41  1  0  0  0  0
 11  2  1  0  0  0  0
 12 11  1  0  0  0  0
 13 11  1  0  0  0  0
 14 11  1  0  0  0  0
 14  3  1  0  0  0  0
 15 14  1  0  0  0  0
 16 14  1  0  0  0  0
 17 19  1  0  0  0  0
 17 20  1  0  0  0  0
 18 17  1  0  0  0  0
 20 21  1  0  0  0  0
 20  4  1  0  0  0  0
 22 20  1  0  0  0  0
 23 26  1  0  0  0  0
 23 25  1  0  0  0  0
 24 23  1  0  0  0  0
 26 28  1  0  0  0  0
 27 26  1  0  0  0  0
 29 31  1  0  0  0  0
 29 30  1  0  0  0  0
 32 29  1  0  0  0  0
 32 33  1  0  0  0  0
 34 32  1  0  0  0  0
 35 36  1  0  0  0  0
 35  6  1  0  0  0  0
 37 35  1  0  0  0  0
 38  1  1  0  0  0  0
 38 35  1  0  0  0  0
 39 38  1  0  0  0  0
 40 38  1  0  0  0  0
 41  8  3  0  0  0  0
 42  7  3  0  0  0  0
M  END
