1
q = 0.0, confidence = 0.984

 21 21  0  0  0  0  0  0  0  0999 V2000
   -0.2718   -0.5009   -1.3161 S   0  0  0  0  0  1  0  0  0  0  0  0
   -6.0786    4.2040   -0.7819 Cl  0  0  0  0  0  0  0  0  0  0  0  0
   -2.4622   -1.8322   -0.4011 N   0  0  0  0  0  4  0  0  0  0  0  0
   -2.6919    0.4164   -0.8660 N   0  0  0  0  0  0  0  0  0  0  0  0
   -3.9903    0.3633   -0.5351 N   0  0  0  0  0  0  0  0  0  0  0  0
   -1.8908   -0.7062   -0.8179 C   0  0  0  0  0  0  0  0  0  0  0  0
   -4.6841    1.4594   -0.5983 C   0  0  0  0  0  0  0  0  0  0  0  0
   -6.8446    2.7037   -0.3058 C   0  0  0  0  0  0  0  0  0  0  0  0
   -8.2082    2.7383    0.0232 C   0  0  0  0  0  0  0  0  0  0  0  0
   -8.8599    1.5608    0.4111 C   0  0  0  0  0  0  0  0  0  0  0  0
   -8.1482    0.3487    0.4696 C   0  0  0  0  0  0  0  0  0  0  0  0
   -6.7927    0.3218    0.1406 C   0  0  0  0  0  0  0  0  0  0  0  0
   -6.1019    1.4944   -0.2554 C   0  0  0  0  0  0  0  0  0  0  0  0
   -1.9334   -2.7301   -0.3621 H   0  0  0  0  0  0  0  0  0  0  0  0
   -3.4459   -1.7881   -0.1195 H   0  0  0  0  0  0  0  0  0  0  0  0
   -2.2341    1.2888   -1.1726 H   0  0  0  0  0  0  0  0  0  0  0  0
   -4.2178    2.4150   -0.9182 H   0  0  0  0  0  0  0  0  0  0  0  0
   -8.7464    3.6948   -0.0292 H   0  0  0  0  0  0  0  0  0  0  0  0
   -9.9293    1.5925    0.6675 H   0  0  0  0  0  0  0  0  0  0  0  0
   -8.6574   -0.5780    0.7724 H   0  0  0  0  0  0  0  0  0  0  0  0
   -6.2231   -0.6177    0.1784 H   0  0  0  0  0  0  0  0  0  0  0  0
  1  6  1  0  0  0  0
  2  8  1  0  0  0  0
  3 14  1  0  0  0  0
  3 15  1  0  0  0  0
  4  6  1  0  0  0  0
  4  5  1  0  0  0  0
  6  3  2  0  0  0  0
  7  5  2  0  0  0  0
  7 13  1  0  0  0  0
  8 13  2  0  0  0  0
  8  9  1  0  0  0  0
  9 10  2  0  0  0  0
 10 11  1  0  0  0  0
 10 19  1  0  0  0  0
 11 20  1  0  0  0  0
 12 21  1  0  0  0  0
 12 11  2  0  0  0  0
 13 12  1  0  0  0  0
 16  4  1  0  0  0  0
 17  7  1  0  0  0  0
 18  9  1  0  0  0  0
M  END
