1
q = -1.0, confidence = 0.014

 22 21  0  0  0  0  0  0  0  0999 V2000
   -0.9268   -1.9497   -0.6664 S   0  0  0  0  0  1  0  0  0  0  0  0
   -4.6032   -0.3742    0.3493 N   0  0  0  0  0  0  0  0  0  0  0  0
   -2.7194   -1.4780   -0.9069 C   0  0  0  0  0  0  0  0  0  0  0  0
   -3.1650   -0.6439    0.3221 C   0  0  0  0  0  0  0  0  0  0  0  0
   -2.8381   -1.1780    1.2441 H   0  0  0  0  0  0  0  0  0  0  0  0
   -2.5962    0.3089    0.3052 H   0  0  0  0  0  0  0  0  0  0  0  0
   -2.9050   -0.6953   -2.2058 C   0  0  0  0  0  0  0  0  0  0  0  0
   -3.9627   -0.3663   -2.2883 H   0  0  0  0  0  0  0  0  0  0  0  0
   -2.6583   -1.3212   -3.0857 H   0  0  0  0  0  0  0  0  0  0  0  0
   -2.2467    0.1938   -2.2203 H   0  0  0  0  0  0  0  0  0  0  0  0
   -3.4747   -2.8125   -0.9724 C   0  0  0  0  0  0  0  0  0  0  0  0
   -4.5583   -2.6087   -1.0962 H   0  0  0  0  0  0  0  0  0  0  0  0
   -3.3224   -3.4085   -0.0502 H   0  0  0  0  0  0  0  0  0  0  0  0
   -3.1302   -3.4182   -1.8339 H   0  0  0  0  0  0  0  0  0  0  0  0
   -4.9495    1.0329    0.3639 C   0  0  0  0  0  0  0  0  0  0  0  0
   -6.0479    1.1546    0.2607 H   0  0  0  0  0  0  0  0  0  0  0  0
   -4.4747    1.5580   -0.4873 H   0  0  0  0  0  0  0  0  0  0  0  0
   -4.6406    1.5646    1.3056 H   0  0  0  0  0  0  0  0  0  0  0  0
   -5.3251   -1.1298    1.3548 C   0  0  0  0  0  0  0  0  0  0  0  0
   -5.1099   -2.2115    1.2581 H   0  0  0  0  0  0  0  0  0  0  0  0
   -6.4189   -0.9942    1.2231 H   0  0  0  0  0  0  0  0  0  0  0  0
   -5.0715   -0.8260    2.4074 H   0  0  0  0  0  0  0  0  0  0  0  0
  2 15  1  0  0  0  0
  2 19  1  0  0  0  0
  3  1  1  0  0  0  0
  3  4  1  0  0  0  0
  4  2  1  0  0  0  0
  4  5  1  0  0  0  0
  6  4  1  0  0  0  0
  7  3  1  0  0  0  0
  8  7  1  0  0  0  0
  9  7  1  0  0  0  0
 10  7  1  0  0  0  0
 11  3  1  0  0  0  0
 11 13  1  0  0  0  0
 12 11  1  0  0  0  0
 14 11  1  0  0  0  0
 15 18  1  0  0  0  0
 16 15  1  0  0  0  0
 17 15  1  0  0  0  0
 19 22  1  0  0  0  0
 20 19  1  0  0  0  0
 21 19  1  0  0  0  0
M  END
