2
q = -1.0, confidence = 0.0

 19 19  0  0  0  0  0  0  0  0999 V2000
   -9.0154   -1.4389    0.0704 Cl  0  0  0  0  0  0  0  0  0  0  0  0
   -2.1547   -0.6509    0.0388 S   0  0  0  0  0  1  0  0  0  0  0  0
   -1.5935    1.9151   -0.2187 O   0  0  0  0  0  0  0  0  0  0  0  0
   -3.8389    1.5228   -0.0659 N   0  0  0  0  0  0  0  0  0  0  0  0
   -2.6438    1.0525   -0.0982 C   0  0  0  0  0  0  0  0  0  0  0  0
   -5.0123    0.7755   -0.0351 C   0  0  0  0  0  0  0  0  0  0  0  0
   -5.2634   -0.3152   -0.9042 C   0  0  0  0  0  0  0  0  0  0  0  0
   -4.4839   -0.6287   -1.6131 H   0  0  0  0  0  0  0  0  0  0  0  0
   -6.4891   -0.9902   -0.8766 C   0  0  0  0  0  0  0  0  0  0  0  0
   -6.6794   -1.8326   -1.5570 H   0  0  0  0  0  0  0  0  0  0  0  0
   -7.4845   -0.5903    0.0294 C   0  0  0  0  0  0  0  0  0  0  0  0
   -7.2632    0.4911    0.8978 C   0  0  0  0  0  0  0  0  0  0  0  0
   -8.0528    0.7978    1.5983 H   0  0  0  0  0  0  0  0  0  0  0  0
   -6.0410    1.1701    0.8537 C   0  0  0  0  0  0  0  0  0  0  0  0
   -5.8552    2.0275    1.5170 H   0  0  0  0  0  0  0  0  0  0  0  0
   -1.9262    3.2993   -0.3520 C   0  0  0  0  0  0  0  0  0  0  0  0
   -2.5558    3.4736   -1.2482 H   0  0  0  0  0  0  0  0  0  0  0  0
   -0.9593    3.8283   -0.4501 H   0  0  0  0  0  0  0  0  0  0  0  0
   -2.4870    3.6620    0.5335 H   0  0  0  0  0  0  0  0  0  0  0  0
  3  5  1  0  0  0  0
  4  6  1  0  0  0  0
  5  4  2  0  0  0  0
  5  2  1  0  0  0  0
  6 14  1  0  0  0  0
  7  9  1  0  0  0  0
  7  6  2  0  0  0  0
  8  7  1  0  0  0  0
  9 11  2  0  0  0  0
 10  9  1  0  0  0  0
 11  1  1  0  0  0  0
 11 12  1  0  0  0  0
 12 13  1  0  0  0  0
 14 12  2  0  0  0  0
 14 15  1  0  0  0  0
 16  3  1  0  0  0  0
 16 19  1  0  0  0  0
 17 16  1  0  0  0  0
 18 16  1  0  0  0  0
M  END
