1
q = 0.0, confidence = 1.0

 29 30  0  0  1  0  0  0  0  0999 V2000
    0.8965    0.6052    0.4583 S   0  0  0  0  0  0  0  0  0  0  0  0
    2.2191   -0.6527    0.2233 C   0  0  2  0  0  0  0  0  0  0  0  0
    3.1739   -0.0917    0.3502 H   0  0  0  0  0  0  0  0  0  0  0  0
    2.2232   -1.3431   -1.1108 C   0  0  0  0  0  0  0  0  0  0  0  0
    1.3205   -1.3028   -1.7416 H   0  0  0  0  0  0  0  0  0  0  0  0
    3.3388   -2.0165   -1.5203 C   0  0  0  0  0  0  0  0  0  0  0  0
    3.3638   -2.4024   -2.5538 H   0  0  0  0  0  0  0  0  0  0  0  0
    4.4741   -2.3216   -0.6832 C   0  0  0  0  0  0  0  0  0  0  0  0
    5.4225   -2.5541   -1.1963 H   0  0  0  0  0  0  0  0  0  0  0  0
    4.4275   -2.5497    0.6802 C   0  0  0  0  0  0  0  0  0  0  0  0
    5.3430   -2.9463    1.1507 H   0  0  0  0  0  0  0  0  0  0  0  0
    3.2409   -2.5146    1.5009 C   0  0  0  0  0  0  0  0  0  0  0  0
    3.2092   -3.2073    2.3589 H   0  0  0  0  0  0  0  0  0  0  0  0
    2.1488   -1.7274    1.2720 C   0  0  0  0  0  0  0  0  0  0  0  0
    1.2185   -1.8704    1.8452 H   0  0  0  0  0  0  0  0  0  0  0  0
    1.3733    1.7395   -0.9977 C   0  0  2  0  0  0  0  0  0  0  0  0
    1.3193    1.0827   -1.8842 H   0  0  0  0  0  0  0  0  0  0  0  0
    2.7613    2.2714   -0.8340 C   0  0  0  0  0  0  0  0  0  0  0  0
    3.5151    1.9096   -1.5527 H   0  0  0  0  0  0  0  0  0  0  0  0
    3.1629    3.1087    0.1711 C   0  0  0  0  0  0  0  0  0  0  0  0
    4.2445    3.3132    0.2473 H   0  0  0  0  0  0  0  0  0  0  0  0
    2.3253    3.7673    1.1383 C   0  0  0  0  0  0  0  0  0  0  0  0
    2.8299    4.1591    2.0368 H   0  0  0  0  0  0  0  0  0  0  0  0
    0.9930    4.0835    0.9795 C   0  0  0  0  0  0  0  0  0  0  0  0
    0.5279    4.7033    1.7636 H   0  0  0  0  0  0  0  0  0  0  0  0
    0.1883    3.8256   -0.1861 C   0  0  0  0  0  0  0  0  0  0  0  0
   -0.6778    4.4925   -0.3330 H   0  0  0  0  0  0  0  0  0  0  0  0
    0.3756    2.8472   -1.1224 C   0  0  0  0  0  0  0  0  0  0  0  0
   -0.2751    2.8304   -2.0111 H   0  0  0  0  0  0  0  0  0  0  0  0
  2  3  1  1  0  0  0
  2  1  1  0  0  0  0
  2 14  1  0  0  0  0
  4  2  1  0  0  0  0
  5  4  1  0  0  0  0
  6  4  2  0  0  0  0
  6  8  1  0  0  0  0
  7  6  1  0  0  0  0
  8 10  2  0  0  0  0
  9  8  1  0  0  0  0
 10 11  1  0  0  0  0
 10 12  1  0  0  0  0
 12 13  1  0  0  0  0
 14 12  2  0  0  0  0
 14 15  1  0  0  0  0
 16 17  1  6  0  0  0
 16 18  1  0  0  0  0
 16  1  1  0  0  0  0
 18 20  2  0  0  0  0
 19 18  1  0  0  0  0
 20 21  1  0  0  0  0
 20 22  1  0  0  0  0
 22 23  1  0  0  0  0
 24 22  2  0  0  0  0
 24 25  1  0  0  0  0
 26 24  1  0  0  0  0
 27 26  1  0  0  0  0
 28 16  1  0  0  0  0
 28 26  2  0  0  0  0
 29 28  1  0  0  0  0
M  END
