1
q = 0.0, confidence = 1.0

 28 30  0  0  1  0  0  0  0  0999 V2000
   -0.1204    0.5292   -0.7803 S   0  0  0  0  0  0  0  0  0  0  0  0
    0.0549    2.4056   -0.8053 C   0  0  2  0  0  0  0  0  0  0  0  0
    0.3298    2.8947    0.5829 C   0  0  0  0  0  0  0  0  0  0  0  0
   -0.6571    2.6690    1.4765 C   0  0  0  0  0  0  0  0  0  0  0  0
   -1.8521    1.9176    0.9424 C   0  0  2  0  0  0  0  0  0  0  0  0
   -1.3976    0.4622    0.5801 C   0  0  1  0  0  0  0  0  0  0  0  0
   -2.4171    2.6631   -0.2913 C   0  0  0  0  0  0  0  0  0  0  0  0
   -1.2942    2.9449   -1.3215 C   0  0  0  0  0  0  0  0  0  0  0  0
   -2.5333   -0.4733    0.2237 C   0  0  0  0  0  0  0  0  0  0  0  0
   -3.1099   -1.2440    1.2541 C   0  0  0  0  0  0  0  0  0  0  0  0
   -4.2059   -2.0801    0.9987 C   0  0  0  0  0  0  0  0  0  0  0  0
   -4.7405   -2.1633   -0.2964 C   0  0  0  0  0  0  0  0  0  0  0  0
   -4.1665   -1.4106   -1.3326 C   0  0  0  0  0  0  0  0  0  0  0  0
   -3.0702   -0.5742   -1.0758 C   0  0  0  0  0  0  0  0  0  0  0  0
    0.8806    2.5919   -1.5158 H   0  0  0  0  0  0  0  0  0  0  0  0
    1.2877    3.3741    0.8334 H   0  0  0  0  0  0  0  0  0  0  0  0
   -0.5844    2.9515    2.5373 H   0  0  0  0  0  0  0  0  0  0  0  0
   -2.6432    1.8085    1.7107 H   0  0  0  0  0  0  0  0  0  0  0  0
   -0.8728    0.0548    1.4644 H   0  0  0  0  0  0  0  0  0  0  0  0
   -3.2342    2.0650   -0.7404 H   0  0  0  0  0  0  0  0  0  0  0  0
   -2.8720    3.6103    0.0572 H   0  0  0  0  0  0  0  0  0  0  0  0
   -1.5179    2.4829   -2.3045 H   0  0  0  0  0  0  0  0  0  0  0  0
   -1.1795    4.0344   -1.4951 H   0  0  0  0  0  0  0  0  0  0  0  0
   -2.6849   -1.1922    2.2693 H   0  0  0  0  0  0  0  0  0  0  0  0
   -4.6375   -2.6790    1.8149 H   0  0  0  0  0  0  0  0  0  0  0  0
   -5.5959   -2.8247   -0.5007 H   0  0  0  0  0  0  0  0  0  0  0  0
   -4.5686   -1.4818   -2.3546 H   0  0  0  0  0  0  0  0  0  0  0  0
   -2.6011   -0.0146   -1.8991 H   0  0  0  0  0  0  0  0  0  0  0  0
  1  6  1  0  0  0  0
  2 15  1  6  0  0  0
  2  1  1  0  0  0  0
  2  3  1  0  0  0  0
  3 16  1  0  0  0  0
  3  4  2  0  0  0  0
  4 17  1  0  0  0  0
  5  4  1  0  0  0  0
  5 18  1  1  0  0  0
  6  5  1  0  0  0  0
  6 19  1  1  0  0  0
  7 21  1  0  0  0  0
  7  5  1  0  0  0  0
  8  2  1  0  0  0  0
  8  7  1  0  0  0  0
  9  6  1  0  0  0  0
  9 10  1  0  0  0  0
 10 24  1  0  0  0  0
 11 10  2  0  0  0  0
 11 25  1  0  0  0  0
 12 11  1  0  0  0  0
 13 14  1  0  0  0  0
 13 12  2  0  0  0  0
 14  9  2  0  0  0  0
 20  7  1  0  0  0  0
 22  8  1  0  0  0  0
 23  8  1  0  0  0  0
 26 12  1  0  0  0  0
 27 13  1  0  0  0  0
 28 14  1  0  0  0  0
M  END
