1
q = 0.0, confidence = 0.994

 24 24  0  0  1  0  0  0  0  0999 V2000
    0.1765    2.5653   -0.0000 S   0  0  0  0  0  1  0  0  0  0  0  0
   -2.4758    2.9095    0.0002 N   0  0  0  0  0  0  0  0  0  0  0  0
   -3.4473   -0.9042   -0.0002 C   0  0  0  0  0  0  0  0  0  0  0  0
   -1.2070   -1.8800   -0.0002 O   0  0  0  0  0  0  0  0  0  0  0  0
   -1.4585    2.0358   -0.0001 C   0  0  2  0  0  3  0  0  0  0  0  0
   -2.3231    4.3480    0.0002 C   0  0  0  0  0  0  0  0  0  0  0  0
   -1.7655    4.6935    0.8964 H   0  0  0  0  0  0  0  0  0  0  0  0
   -3.3254    4.8131    0.0001 H   0  0  0  0  0  0  0  0  0  0  0  0
   -1.7653    4.6934   -0.8959 H   0  0  0  0  0  0  0  0  0  0  0  0
   -1.7873    0.7109   -0.0004 N   0  0  0  0  0  0  0  0  0  0  0  0
   -1.0066    0.0269   -0.0000 H   0  0  0  0  0  0  0  0  0  0  0  0
   -3.0935    0.3582   -0.0002 N   0  0  0  0  0  0  0  0  0  0  0  0
   -2.5731   -2.0614   -0.0002 C   0  0  0  0  0  0  0  0  0  0  0  0
   -0.6106   -3.1019   -0.0000 C   0  0  0  0  0  0  0  0  0  0  0  0
    0.4884   -3.0736   -0.0000 H   0  0  0  0  0  0  0  0  0  0  0  0
   -1.5729   -4.0900    0.0002 C   0  0  0  0  0  0  0  0  0  0  0  0
   -1.3900   -5.1696    0.0004 H   0  0  0  0  0  0  0  0  0  0  0  0
   -2.8372   -3.4272    0.0000 C   0  0  0  0  0  0  0  0  0  0  0  0
   -3.8285   -3.8923    0.0001 H   0  0  0  0  0  0  0  0  0  0  0  0
   -4.9288   -1.1796    0.0002 C   0  0  0  0  0  0  0  0  0  0  0  0
   -5.4828   -0.2242   -0.0008 H   0  0  0  0  0  0  0  0  0  0  0  0
   -5.2269   -1.7652    0.8943 H   0  0  0  0  0  0  0  0  0  0  0  0
   -5.2270   -1.7672   -0.8925 H   0  0  0  0  0  0  0  0  0  0  0  0
   -3.3998    2.4564    0.0003 H   0  0  0  0  0  0  0  0  0  0  0  0
  2 24  1  0  0  0  0
  3 20  1  0  0  0  0
  4 14  1  0  0  0  0
  5  1  1  1  0  0  0
  5  2  1  0  0  0  0
  6  2  1  0  0  0  0
  6  7  1  0  0  0  0
  8  6  1  0  0  0  0
  9  6  1  0  0  0  0
 10 12  1  0  0  0  0
 10  5  1  0  0  0  0
 10 11  1  0  0  0  0
 12  3  2  0  0  0  0
 13  3  1  0  0  0  0
 13  4  1  0  0  0  0
 13 18  2  0  0  0  0
 14 16  2  0  0  0  0
 15 14  1  0  0  0  0
 16 17  1  0  0  0  0
 18 19  1  0  0  0  0
 18 16  1  0  0  0  0
 20 22  1  0  0  0  0
 21 20  1  0  0  0  0
 23 20  1  0  0  0  0
M  END
