1
q = 0.0, confidence = 0.99

 28 29  0  0  0  0  0  0  0  0999 V2000
    1.1406   -1.2916    0.0315 S   0  0  0  0  0  1  0  0  0  0  0  0
    2.5986   -0.3816    0.0606 C   0  0  0  0  0  3  0  0  0  0  0  0
    2.5824    0.9688    0.1342 N   0  0  0  0  0  0  0  0  0  0  0  0
    1.6082    1.3989    0.0610 H   0  0  0  0  0  0  0  0  0  0  0  0
    3.6726    1.8611    0.1675 C   0  0  0  0  0  0  0  0  0  0  0  0
    3.5716    3.0505   -0.5903 C   0  0  0  0  0  0  0  0  0  0  0  0
    2.6757    3.2128   -1.2080 H   0  0  0  0  0  0  0  0  0  0  0  0
    4.6029    3.9964   -0.5600 C   0  0  0  0  0  0  0  0  0  0  0  0
    4.5092    4.9172   -1.1554 H   0  0  0  0  0  0  0  0  0  0  0  0
    5.7546    3.7702    0.2125 C   0  0  0  0  0  0  0  0  0  0  0  0
    6.5669    4.5115    0.2277 H   0  0  0  0  0  0  0  0  0  0  0  0
    5.8549    2.5955    0.9733 C   0  0  0  0  0  0  0  0  0  0  0  0
    6.7411    2.4189    1.6016 H   0  0  0  0  0  0  0  0  0  0  0  0
    4.8213    1.6470    0.9656 C   0  0  0  0  0  0  0  0  0  0  0  0
    4.8858    0.7611    1.6138 H   0  0  0  0  0  0  0  0  0  0  0  0
    3.8193   -0.9861   -0.0576 N   0  0  0  0  0  0  0  0  0  0  0  0
    4.5851   -0.3340   -0.2614 H   0  0  0  0  0  0  0  0  0  0  0  0
    4.1966   -2.3451   -0.0793 C   0  0  0  0  0  0  0  0  0  0  0  0
    5.3801   -2.6721   -0.7776 C   0  0  0  0  0  0  0  0  0  0  0  0
    5.9318   -1.8801   -1.3089 H   0  0  0  0  0  0  0  0  0  0  0  0
    5.8449   -3.9920   -0.8048 C   0  0  0  0  0  0  0  0  0  0  0  0
    6.7674   -4.2290   -1.3560 H   0  0  0  0  0  0  0  0  0  0  0  0
    5.1344   -5.0060   -0.1431 C   0  0  0  0  0  0  0  0  0  0  0  0
    5.4938   -6.0451   -0.1707 H   0  0  0  0  0  0  0  0  0  0  0  0
    3.9629   -4.6783    0.5570 C   0  0  0  0  0  0  0  0  0  0  0  0
    3.4022   -5.4613    1.0896 H   0  0  0  0  0  0  0  0  0  0  0  0
    3.4915   -3.3593    0.6014 C   0  0  0  0  0  0  0  0  0  0  0  0
    2.5819   -3.1122    1.1626 H   0  0  0  0  0  0  0  0  0  0  0  0
  1  2  1  0  0  0  0
  2  3  1  0  0  0  0
  3  5  1  0  0  0  0
  4  3  1  0  0  0  0
  5 14  1  0  0  0  0
  6  8  1  0  0  0  0
  6  5  2  0  0  0  0
  7  6  1  0  0  0  0
  8 10  2  0  0  0  0
  9  8  1  0  0  0  0
 10 11  1  0  0  0  0
 10 12  1  0  0  0  0
 12 13  1  0  0  0  0
 14 12  2  0  0  0  0
 14 15  1  0  0  0  0
 16  2  1  0  0  0  0
 17 16  1  0  0  0  0
 18 16  1  0  0  0  0
 18 27  1  0  0  0  0
 19 18  2  0  0  0  0
 20 19  1  0  0  0  0
 21 19  1  0  0  0  0
 21 23  2  0  0  0  0
 22 21  1  0  0  0  0
 23 25  1  0  0  0  0
 24 23  1  0  0  0  0
 25 27  2  0  0  0  0
 25 26  1  0  0  0  0
 27 28  1  0  0  0  0
M  END
