1
q = 0.0, confidence = 0.98

 13 12  0  0  0  0  0  0  0  0999 V2000
   -1.6559    0.3015   -0.3866 S   0  0  2  0  0  3  0  0  0  0  0  0
   -2.3222    1.6455   -0.5232 O   0  0  0  0  0  1  0  0  0  0  0  0
   -2.1646   -0.7009   -1.8262 C   0  0  0  0  0  0  0  0  0  0  0  0
   -3.2704   -0.6903   -1.8785 H   0  0  0  0  0  0  0  0  0  0  0  0
   -1.7247   -1.7091   -1.6914 H   0  0  0  0  0  0  0  0  0  0  0  0
   -1.7205   -0.1891   -2.6992 H   0  0  0  0  0  0  0  0  0  0  0  0
   -2.5533   -0.6003    0.9525 C   0  0  0  0  0  0  0  0  0  0  0  0
   -3.6137   -0.6232    0.6246 H   0  0  0  0  0  0  0  0  0  0  0  0
   -2.1035   -1.6153    0.9557 H   0  0  0  0  0  0  0  0  0  0  0  0
   -2.3528    0.1533    2.2571 C   0  0  0  0  0  0  0  0  0  0  0  0
   -1.2785    0.1511    2.5329 H   0  0  0  0  0  0  0  0  0  0  0  0
   -2.9332   -0.3210    3.0746 H   0  0  0  0  0  0  0  0  0  0  0  0
   -2.6788    1.2071    2.1479 H   0  0  0  0  0  0  0  0  0  0  0  0
  1  2  1  6  0  0  0
  1  7  1  0  0  0  0
  3  5  1  0  0  0  0
  3  1  1  0  0  0  0
  4  3  1  0  0  0  0
  6  3  1  0  0  0  0
  7  9  1  0  0  0  0
  7 10  1  0  0  0  0
  8  7  1  0  0  0  0
 10 11  1  0  0  0  0
 10 12  1  0  0  0  0
 13 10  1  0  0  0  0
M  END
