1
q = -1.0, confidence = 0.35

 16 15  0  0  0  0  0  0  0  0999 V2000
    1.6384    0.1918   -0.1580 S   0  0  0  0  0  3  0  0  0  0  0  0
    2.5993    0.4210    1.3735 C   0  0  0  0  0  0  0  0  0  0  0  0
    2.4154    1.4668   -1.2132 C   0  0  0  0  0  0  0  0  0  0  0  0
    2.4463   -1.3306   -0.8604 C   0  0  0  0  0  0  0  0  0  0  0  0
    2.0549   -2.5861   -0.1056 C   0  0  0  0  0  0  0  0  0  0  0  0
    3.6826    0.3744    1.1558 H   0  0  0  0  0  0  0  0  0  0  0  0
    2.3111    1.4065    1.7841 H   0  0  0  0  0  0  0  0  0  0  0  0
    2.2912   -0.3766    2.0738 H   0  0  0  0  0  0  0  0  0  0  0  0
    3.5129    1.3308   -1.2492 H   0  0  0  0  0  0  0  0  0  0  0  0
    1.9677    1.3708   -2.2190 H   0  0  0  0  0  0  0  0  0  0  0  0
    2.1435    2.4449   -0.7751 H   0  0  0  0  0  0  0  0  0  0  0  0
    2.0945   -1.3428   -1.9119 H   0  0  0  0  0  0  0  0  0  0  0  0
    3.5375   -1.1323   -0.8541 H   0  0  0  0  0  0  0  0  0  0  0  0
    0.9578   -2.7295   -0.1002 H   0  0  0  0  0  0  0  0  0  0  0  0
    2.4144   -2.5817    0.9417 H   0  0  0  0  0  0  0  0  0  0  0  0
    2.5136   -3.4610   -0.6079 H   0  0  0  0  0  0  0  0  0  0  0  0
  1  2  1  0  0  0  0
  2  7  1  0  0  0  0
  2  8  1  0  0  0  0
  3 11  1  0  0  0  0
  3  1  1  0  0  0  0
  4 13  1  0  0  0  0
  4  1  1  0  0  0  0
  4  5  1  0  0  0  0
  5 14  1  0  0  0  0
  5 15  1  0  0  0  0
  6  2  1  0  0  0  0
  9  3  1  0  0  0  0
 10  3  1  0  0  0  0
 12  4  1  0  0  0  0
 16  5  1  0  0  0  0
M  END
