1
q = 0.0, confidence = 0.992

 15 14  0  0  0  0  0  0  0  0999 V2000
    1.2104   -0.6460   -0.9189 S   0  0  0  0  0  0  0  0  0  0  0  0
    2.7620   -0.0050   -0.0448 C   0  0  0  0  0  0  0  0  0  0  0  0
    3.9338   -0.7800   -0.6597 C   0  0  0  0  0  0  0  0  0  0  0  0
    2.8432    1.4838   -0.3980 C   0  0  0  0  0  0  0  0  0  0  0  0
    2.6743   -0.2319    1.4633 C   0  0  0  0  0  0  0  0  0  0  0  0
    1.3664   -1.9365   -0.4966 H   0  0  0  0  0  0  0  0  0  0  0  0
    4.8871   -0.4005   -0.2359 H   0  0  0  0  0  0  0  0  0  0  0  0
    3.9717   -0.6563   -1.7598 H   0  0  0  0  0  0  0  0  0  0  0  0
    3.8740   -1.8633   -0.4299 H   0  0  0  0  0  0  0  0  0  0  0  0
    3.7739    1.9073    0.0319 H   0  0  0  0  0  0  0  0  0  0  0  0
    1.9928    2.0555    0.0186 H   0  0  0  0  0  0  0  0  0  0  0  0
    2.8720    1.6397   -1.4950 H   0  0  0  0  0  0  0  0  0  0  0  0
    3.6110    0.1237    1.9419 H   0  0  0  0  0  0  0  0  0  0  0  0
    2.5539   -1.3056    1.7108 H   0  0  0  0  0  0  0  0  0  0  0  0
    1.8331    0.3241    1.9159 H   0  0  0  0  0  0  0  0  0  0  0  0
  1  6  1  0  0  0  0
  1  2  1  0  0  0  0
  2  5  1  0  0  0  0
  3  9  1  0  0  0  0
  3  7  1  0  0  0  0
  3  2  1  0  0  0  0
  4  2  1  0  0  0  0
  4 11  1  0  0  0  0
  4 10  1  0  0  0  0
  5 14  1  0  0  0  0
  5 15  1  0  0  0  0
  5 13  1  0  0  0  0
  8  3  1  0  0  0  0
 12  4  1  0  0  0  0
M  END
