1
q = 0.0, confidence = 0.984

 33 33  0  0  0  0  0  0  0  0999 V2000
    0.7094   -2.1357   -0.7663 S   0  0  0  0  0  1  0  0  0  0  0  0
    2.5900   -1.9136   -0.1085 P   0  0  0  0  0  4  0  0  0  0  0  0
    3.3204   -0.5996   -0.8294 N   0  0  0  0  0  0  0  0  0  0  0  0
    4.5573   -0.0154   -0.5251 C   0  0  0  0  0  0  0  0  0  0  0  0
    5.5888   -0.7265    0.1332 C   0  0  0  0  0  0  0  0  0  0  0  0
    6.8072   -0.0997    0.3972 C   0  0  0  0  0  0  0  0  0  0  0  0
    6.9996    1.2311   -0.0011 C   0  0  0  0  0  0  0  0  0  0  0  0
    8.2910    1.8874    0.2774 N   0  0  0  0  0  0  0  0  0  0  0  0
    9.1523    1.2248    0.8599 O   0  0  0  0  0  0  0  0  0  0  0  0
    8.4263    3.0560   -0.0905 O   0  0  0  0  0  0  0  0  0  0  0  0
    5.9901    1.9516   -0.6565 C   0  0  0  0  0  0  0  0  0  0  0  0
    4.7689    1.3294   -0.9141 C   0  0  0  0  0  0  0  0  0  0  0  0
    3.9518    1.8757   -1.4089 H   0  0  0  0  0  0  0  0  0  0  0  0
    6.1822    2.9937   -0.9440 H   0  0  0  0  0  0  0  0  0  0  0  0
    7.6276   -0.6221    0.9068 H   0  0  0  0  0  0  0  0  0  0  0  0
    5.4312   -1.7709    0.4346 H   0  0  0  0  0  0  0  0  0  0  0  0
    2.6314    0.0016   -1.3426 H   0  0  0  0  0  0  0  0  0  0  0  0
    3.4911   -3.2386   -0.3886 O   0  0  0  0  0  0  0  0  0  0  0  0
    3.6456   -3.7475   -1.7443 C   0  0  0  0  0  0  0  0  0  0  0  0
    2.7743   -4.9676   -1.9651 C   0  0  0  0  0  0  0  0  0  0  0  0
    2.9595   -5.3838   -2.9758 H   0  0  0  0  0  0  0  0  0  0  0  0
    1.7001   -4.7071   -1.8896 H   0  0  0  0  0  0  0  0  0  0  0  0
    3.0013   -5.7538   -1.2184 H   0  0  0  0  0  0  0  0  0  0  0  0
    3.4134   -2.9381   -2.4695 H   0  0  0  0  0  0  0  0  0  0  0  0
    4.7235   -3.9880   -1.8409 H   0  0  0  0  0  0  0  0  0  0  0  0
    2.8192   -1.7087    1.4692 O   0  0  0  0  0  0  0  0  0  0  0  0
    2.2719   -2.6553    2.4381 C   0  0  0  0  0  0  0  0  0  0  0  0
    2.1745   -1.9506    3.7714 C   0  0  0  0  0  0  0  0  0  0  0  0
    1.8124   -2.6633    4.5391 H   0  0  0  0  0  0  0  0  0  0  0  0
    1.4528   -1.1138    3.7056 H   0  0  0  0  0  0  0  0  0  0  0  0
    3.1614   -1.5624    4.0920 H   0  0  0  0  0  0  0  0  0  0  0  0
    1.2703   -2.9778    2.0835 H   0  0  0  0  0  0  0  0  0  0  0  0
    2.9507   -3.5334    2.4673 H   0  0  0  0  0  0  0  0  0  0  0  0
  1  2  1  0  0  0  0
  2 26  1  0  0  0  0
  3  4  1  0  0  0  0
  3  2  1  0  0  0  0
  4  5  1  0  0  0  0
  5  6  2  0  0  0  0
  5 16  1  0  0  0  0
  6 15  1  0  0  0  0
  7  8  1  0  0  0  0
  7  6  1  0  0  0  0
  8  9  2  0  0  0  0
 10  8  2  0  0  0  0
 11  7  2  0  0  0  0
 12 11  1  0  0  0  0
 12  4  2  0  0  0  0
 13 12  1  0  0  0  0
 14 11  1  0  0  0  0
 17  3  1  0  0  0  0
 18  2  1  0  0  0  0
 19 18  1  0  0  0  0
 20 22  1  0  0  0  0
 20 19  1  0  0  0  0
 20 23  1  0  0  0  0
 21 20  1  0  0  0  0
 24 19  1  0  0  0  0
 25 19  1  0  0  0  0
 26 27  1  0  0  0  0
 27 33  1  0  0  0  0
 27 28  1  0  0  0  0
 28 31  1  0  0  0  0
 28 29  1  0  0  0  0
 30 28  1  0  0  0  0
 32 27  1  0  0  0  0
M  END
