1
q = 0.0, confidence = 0.994

 33 32  0  0  0  0  0  0  0  0999 V2000
   -0.3365    2.3000   -0.2985 S   0  0  0  0  0  0  0  0  0  0  0  0
    0.5783    3.0350    1.1206 C   0  0  0  0  0  0  0  0  0  0  0  0
    0.0864    2.6566    2.0389 H   0  0  0  0  0  0  0  0  0  0  0  0
    0.4300    4.1319    1.0411 H   0  0  0  0  0  0  0  0  0  0  0  0
    2.0534    2.6424    1.0915 C   0  0  0  0  0  0  0  0  0  0  0  0
    2.1276    1.5683    1.3697 H   0  0  0  0  0  0  0  0  0  0  0  0
    2.5601    3.2121    1.9034 H   0  0  0  0  0  0  0  0  0  0  0  0
    2.7971    2.8699   -0.2382 C   0  0  0  0  0  0  0  0  0  0  0  0
    2.3338    2.1955   -0.9955 H   0  0  0  0  0  0  0  0  0  0  0  0
    4.2637    2.4505   -0.0932 C   0  0  0  0  0  0  0  0  0  0  0  0
    4.7955    3.0946    0.6398 H   0  0  0  0  0  0  0  0  0  0  0  0
    4.3495    1.4022    0.2579 H   0  0  0  0  0  0  0  0  0  0  0  0
    4.8016    2.5247   -1.0598 H   0  0  0  0  0  0  0  0  0  0  0  0
    2.6777    4.3125   -0.7416 C   0  0  0  0  0  0  0  0  0  0  0  0
    3.0790    5.0333    0.0036 H   0  0  0  0  0  0  0  0  0  0  0  0
    3.2496    4.4509   -1.6813 H   0  0  0  0  0  0  0  0  0  0  0  0
    1.6265    4.5915   -0.9584 H   0  0  0  0  0  0  0  0  0  0  0  0
   -2.0586    2.5994    0.2577 C   0  0  0  0  0  0  0  0  0  0  0  0
   -2.2115    3.6991    0.2254 H   0  0  0  0  0  0  0  0  0  0  0  0
   -2.1154    2.2369    1.3030 H   0  0  0  0  0  0  0  0  0  0  0  0
   -3.0406    1.8608   -0.6456 C   0  0  0  0  0  0  0  0  0  0  0  0
   -2.8625    2.1452   -1.7052 H   0  0  0  0  0  0  0  0  0  0  0  0
   -2.8271    0.7708   -0.5705 H   0  0  0  0  0  0  0  0  0  0  0  0
   -4.5190    2.1118   -0.2888 C   0  0  0  0  0  0  0  0  0  0  0  0
   -4.6958    3.2116   -0.3401 H   0  0  0  0  0  0  0  0  0  0  0  0
   -4.8602    1.6399    1.1315 C   0  0  0  0  0  0  0  0  0  0  0  0
   -4.6210    0.5632    1.2586 H   0  0  0  0  0  0  0  0  0  0  0  0
   -4.2935    2.1930    1.9067 H   0  0  0  0  0  0  0  0  0  0  0  0
   -5.9390    1.7780    1.3473 H   0  0  0  0  0  0  0  0  0  0  0  0
   -5.4295    1.4447   -1.3274 C   0  0  0  0  0  0  0  0  0  0  0  0
   -6.4988    1.6471   -1.1148 H   0  0  0  0  0  0  0  0  0  0  0  0
   -5.2112    1.8045   -2.3535 H   0  0  0  0  0  0  0  0  0  0  0  0
   -5.2918    0.3427   -1.3236 H   0  0  0  0  0  0  0  0  0  0  0  0
  1 18  1  0  0  0  0
  1  2  1  0  0  0  0
  2  3  1  0  0  0  0
  4  2  1  0  0  0  0
  5  2  1  0  0  0  0
  5  6  1  0  0  0  0
  5  7  1  0  0  0  0
  8 10  1  0  0  0  0
  8  5  1  0  0  0  0
  9  8  1  0  0  0  0
 10 12  1  0  0  0  0
 10 11  1  0  0  0  0
 13 10  1  0  0  0  0
 14  8  1  0  0  0  0
 14 15  1  0  0  0  0
 16 14  1  0  0  0  0
 17 14  1  0  0  0  0
 18 20  1  0  0  0  0
 19 18  1  0  0  0  0
 21 23  1  0  0  0  0
 21 24  1  0  0  0  0
 21 18  1  0  0  0  0
 22 21  1  0  0  0  0
 24 26  1  0  0  0  0
 25 24  1  0  0  0  0
 26 27  1  0  0  0  0
 26 29  1  0  0  0  0
 26 28  1  0  0  0  0
 30 33  1  0  0  0  0
 30 31  1  0  0  0  0
 30 24  1  0  0  0  0
 32 30  1  0  0  0  0
M  END
