1
 OpenBabel05122313063D

  3  2  0  0  0  0  0  0  0  0999 V2000
   -1.6081   -1.6965   -2.1043 S   0  0  0  0  0  0  0  0  0  0  0  0
   -1.8178   -0.0511   -2.4100 C   0  0  0  0  0  0  0  0  0  0  0  0
   -1.9819    1.0988   -2.6315 N   0  0  0  0  0  0  0  0  0  0  0  0
  2  1  1  0  0  0  0
  3  2  3  0  0  0  0
M  END
