1
 OpenBabel05122313063D

  8  7  0  0  0  0  0  0  0  0999 V2000
    2.1650   -0.8743   -0.4123 S   0  0  0  0  0  1  0  0  0  0  0  0
    3.1573    0.1863    0.5337 C   0  0  0  0  0  0  0  0  0  0  0  0
    2.6834    1.2715    1.1622 N   0  0  0  0  0  0  0  0  0  0  0  0
    3.2824    1.9008    1.7002 H   0  0  0  0  0  0  0  0  0  0  0  0
    1.6894    1.4951    1.0715 H   0  0  0  0  0  0  0  0  0  0  0  0
    4.4621   -0.1187    0.6223 N   0  0  0  0  0  4  0  0  0  0  0  0
    5.1289    0.4570    1.1385 H   0  0  0  0  0  0  0  0  0  0  0  0
    4.8186   -0.9411    0.1341 H   0  0  0  0  0  0  0  0  0  0  0  0
  1  2  1  0  0  0  0
  2  6  2  0  0  0  0
  2  3  1  0  0  0  0
  3  4  1  0  0  0  0
  5  3  1  0  0  0  0
  6  7  1  0  0  0  0
  8  6  1  0  0  0  0
M  END
