1
 OpenBabel05122313063D

 35 35  0  0  0  0  0  0  0  0999 V2000
   -2.2868   -2.2455    0.3916 S   0  0  0  0  0  1  0  0  0  0  0  0
    3.0066   -1.7582    0.0510 N   0  0  0  0  0  0  0  0  0  0  0  0
   -0.6171   -2.3705    1.1660 C   0  0  0  0  0  0  0  0  0  0  0  0
    0.5274   -2.0836    0.1989 C   0  0  0  0  0  0  0  0  0  0  0  0
    1.8943   -2.2103    0.8789 C   0  0  0  0  0  0  0  0  0  0  0  0
    4.2226   -1.5510    0.8265 C   0  0  0  0  0  0  0  0  0  0  0  0
    5.2661   -0.6782    0.1244 C   0  0  0  0  0  0  0  0  0  0  0  0
    6.4701   -0.3605    1.0277 C   0  0  0  0  0  0  0  0  0  0  0  0
    7.5122    0.4866    0.3353 C   0  0  0  0  0  0  0  0  0  0  0  0
    8.5628   -0.1088   -0.3922 C   0  0  0  0  0  0  0  0  0  0  0  0
    9.5021    0.6754   -1.0785 C   0  0  0  0  0  0  0  0  0  0  0  0
    9.4058    2.0756   -1.0504 C   0  0  0  0  0  0  0  0  0  0  0  0
    8.3646    2.6829   -0.3306 C   0  0  0  0  0  0  0  0  0  0  0  0
    7.4280    1.8938    0.3536 C   0  0  0  0  0  0  0  0  0  0  0  0
    3.2209   -2.6048   -1.1091 C   0  0  0  0  0  0  0  0  0  0  0  0
   -0.5719   -3.4117    1.5503 H   0  0  0  0  0  0  0  0  0  0  0  0
   -0.5806   -1.6947    2.0468 H   0  0  0  0  0  0  0  0  0  0  0  0
    0.4300   -1.0516   -0.1984 H   0  0  0  0  0  0  0  0  0  0  0  0
    0.4429   -2.7705   -0.6689 H   0  0  0  0  0  0  0  0  0  0  0  0
    1.8843   -1.5775    1.7927 H   0  0  0  0  0  0  0  0  0  0  0  0
    2.0415   -3.2693    1.2360 H   0  0  0  0  0  0  0  0  0  0  0  0
    4.6988   -2.5263    1.1316 H   0  0  0  0  0  0  0  0  0  0  0  0
    3.9310   -1.0492    1.7745 H   0  0  0  0  0  0  0  0  0  0  0  0
    4.7783    0.2638   -0.2049 H   0  0  0  0  0  0  0  0  0  0  0  0
    5.6382   -1.1722   -0.7982 H   0  0  0  0  0  0  0  0  0  0  0  0
    6.9308   -1.3123    1.3698 H   0  0  0  0  0  0  0  0  0  0  0  0
    6.1131    0.1609    1.9422 H   0  0  0  0  0  0  0  0  0  0  0  0
    8.6457   -1.2076   -0.4149 H   0  0  0  0  0  0  0  0  0  0  0  0
   10.3175    0.1898   -1.6365 H   0  0  0  0  0  0  0  0  0  0  0  0
   10.1433    2.6929   -1.5857 H   0  0  0  0  0  0  0  0  0  0  0  0
    8.2830    3.7804   -0.2992 H   0  0  0  0  0  0  0  0  0  0  0  0
    6.6139    2.3762    0.9186 H   0  0  0  0  0  0  0  0  0  0  0  0
    2.3053   -2.6563   -1.7288 H   0  0  0  0  0  0  0  0  0  0  0  0
    4.0219   -2.1899   -1.7509 H   0  0  0  0  0  0  0  0  0  0  0  0
    3.5113   -3.6569   -0.8358 H   0  0  0  0  0  0  0  0  0  0  0  0
  1  3  1  0  0  0  0
  2  6  1  0  0  0  0
  2  5  1  0  0  0  0
  3 16  1  0  0  0  0
  3 17  1  0  0  0  0
  4  5  1  0  0  0  0
  4  3  1  0  0  0  0
  5 21  1  0  0  0  0
  5 20  1  0  0  0  0
  6 22  1  0  0  0  0
  6 23  1  0  0  0  0
  7  6  1  0  0  0  0
  7  8  1  0  0  0  0
  8 26  1  0  0  0  0
  8 27  1  0  0  0  0
  9 14  1  0  0  0  0
  9  8  1  0  0  0  0
 10  9  2  0  0  0  0
 11 12  2  0  0  0  0
 11 10  1  0  0  0  0
 12 13  1  0  0  0  0
 13 31  1  0  0  0  0
 13 14  2  0  0  0  0
 14 32  1  0  0  0  0
 15 35  1  0  0  0  0
 15  2  1  0  0  0  0
 18  4  1  0  0  0  0
 19  4  1  0  0  0  0
 24  7  1  0  0  0  0
 25  7  1  0  0  0  0
 28 10  1  0  0  0  0
 29 11  1  0  0  0  0
 30 12  1  0  0  0  0
 33 15  1  0  0  0  0
 34 15  1  0  0  0  0
M  END
