1
 OpenBabel05122313063D

  9  8  0  0  0  0  0  0  0  0999 V2000
   -0.3850   -2.4853   -1.3263 S   0  0  0  0  0  0  0  0  0  0  0  0
   -1.3960   -3.2810   -0.0342 C   0  0  0  0  0  0  0  0  0  0  0  0
   -2.2972   -2.6498    0.0805 H   0  0  0  0  0  0  0  0  0  0  0  0
   -0.8235   -3.3036    0.9143 H   0  0  0  0  0  0  0  0  0  0  0  0
   -1.6796   -4.2949   -0.3777 H   0  0  0  0  0  0  0  0  0  0  0  0
    1.0618   -3.5924   -1.3295 C   0  0  0  0  0  0  0  0  0  0  0  0
    1.7734   -3.1777   -2.0669 H   0  0  0  0  0  0  0  0  0  0  0  0
    0.7338   -4.6029   -1.6417 H   0  0  0  0  0  0  0  0  0  0  0  0
    1.5219   -3.5923   -0.3213 H   0  0  0  0  0  0  0  0  0  0  0  0
  1  2  1  0  0  0  0
  2  3  1  0  0  0  0
  2  4  1  0  0  0  0
  5  2  1  0  0  0  0
  6  1  1  0  0  0  0
  6  9  1  0  0  0  0
  7  6  1  0  0  0  0
  8  6  1  0  0  0  0
M  END
