2
 OpenBabel05122313063D

 24 24  0  0  1  0  0  0  0  0999 V2000
   -7.0754    0.8882    0.1646 S   0  0  0  0  0  0  0  0  0  0  0  0
   -0.6281    2.0073   -0.4838 S   0  0  0  0  0  1  0  0  0  0  0  0
   -2.3123    1.7405   -0.3287 C   0  0  1  0  0  3  0  0  0  0  0  0
   -2.7953    4.1618   -0.3346 C   0  0  0  0  0  0  0  0  0  0  0  0
   -2.0716    4.4152    0.4685 H   0  0  0  0  0  0  0  0  0  0  0  0
   -3.7020    4.7832   -0.2153 H   0  0  0  0  0  0  0  0  0  0  0  0
   -2.3112    4.4095   -1.3034 H   0  0  0  0  0  0  0  0  0  0  0  0
   -4.8271   -0.7365   -0.0724 C   0  0  0  0  0  0  0  0  0  0  0  0
   -4.1323   -2.0656   -0.1455 C   0  0  0  0  0  0  0  0  0  0  0  0
   -3.5720   -2.1666   -1.0983 H   0  0  0  0  0  0  0  0  0  0  0  0
   -4.8336   -2.9125   -0.0593 H   0  0  0  0  0  0  0  0  0  0  0  0
   -3.3638   -2.1590    0.6501 H   0  0  0  0  0  0  0  0  0  0  0  0
   -6.2771   -0.6705    0.0687 C   0  0  0  0  0  0  0  0  0  0  0  0
   -7.2121   -1.7010    0.1458 C   0  0  0  0  0  0  0  0  0  0  0  0
   -6.9387   -2.7635    0.1060 H   0  0  0  0  0  0  0  0  0  0  0  0
   -8.5520   -1.2357    0.2791 C   0  0  0  0  0  0  0  0  0  0  0  0
   -9.4275   -1.8949    0.3545 H   0  0  0  0  0  0  0  0  0  0  0  0
   -8.6324    0.1447    0.3034 C   0  0  0  0  0  0  0  0  0  0  0  0
   -9.5291    0.7699    0.3967 H   0  0  0  0  0  0  0  0  0  0  0  0
   -3.1763    2.7698   -0.2730 N   0  0  0  0  0  0  0  0  0  0  0  0
   -4.1587    2.4749   -0.1851 H   0  0  0  0  0  0  0  0  0  0  0  0
   -2.8691    0.4890   -0.2575 N   0  0  0  0  0  0  0  0  0  0  0  0
   -2.2198   -0.3398   -0.2897 H   0  0  0  0  0  0  0  0  0  0  0  0
   -4.2110    0.4156   -0.1313 N   0  0  0  0  0  0  0  0  0  0  0  0
  1 18  1  0  0  0  0
  3  2  1  6  0  0  0
  3 20  1  0  0  0  0
  3 22  1  0  0  0  0
  4 20  1  0  0  0  0
  4  6  1  0  0  0  0
  4  5  1  0  0  0  0
  7  4  1  0  0  0  0
  8 13  1  0  0  0  0
  9  8  1  0  0  0  0
  9 11  1  0  0  0  0
  9 12  1  0  0  0  0
 10  9  1  0  0  0  0
 13 14  2  0  0  0  0
 13  1  1  0  0  0  0
 14 16  1  0  0  0  0
 15 14  1  0  0  0  0
 16 18  2  0  0  0  0
 16 17  1  0  0  0  0
 18 19  1  0  0  0  0
 20 21  1  0  0  0  0
 22 24  1  0  0  0  0
 23 22  1  0  0  0  0
 24  8  2  0  0  0  0
M  END
