1
 OpenBabel05122313063D

  9  9  0  0  0  0  0  0  0  0999 V2000
    1.5269   -2.8032   -0.6703 S   0  0  0  0  0  1  0  0  0  0  0  0
    4.1894   -3.6534    0.5521 S   0  0  0  0  0  0  0  0  0  0  0  0
    2.9839   -1.4632    1.2598 N   0  0  0  0  0  0  0  0  0  0  0  0
    4.1410   -1.4842    1.9774 N   0  0  0  0  0  0  0  0  0  0  0  0
    6.0576   -2.8178    2.4089 N   0  0  0  0  0  0  0  0  0  0  0  0
    6.4007   -2.0106    2.9369 H   0  0  0  0  0  0  0  0  0  0  0  0
    6.7847   -3.2911    1.8703 H   0  0  0  0  0  0  0  0  0  0  0  0
    2.8286   -2.4908    0.4503 C   0  0  0  0  0  0  0  0  0  0  0  0
    4.8836   -2.5406    1.7396 C   0  0  0  0  0  0  0  0  0  0  0  0
  1  8  1  0  0  0  0
  2  9  1  0  0  0  0
  3  4  1  0  0  0  0
  5  6  1  0  0  0  0
  7  5  1  0  0  0  0
  8  2  1  0  0  0  0
  8  3  2  0  0  0  0
  9  4  2  0  0  0  0
  9  5  1  0  0  0  0
M  END
