17
 OpenBabel05122313063D

 18 17  0  0  0  0  0  0  0  0999 V2000
    1.6477    2.3910    0.2317 C   0  0  0  0  0  0  0  0  0  0  0  0
    3.5012    3.1487   -1.2344 C   0  0  0  0  0  0  0  0  0  0  0  0
    2.9790    4.0630   -2.3437 C   0  0  0  0  0  0  0  0  0  0  0  0
    3.1059    4.2204    0.9841 C   0  0  0  0  0  0  0  0  0  0  0  0
    4.1067    3.6793    2.0042 C   0  0  0  0  0  0  0  0  0  0  0  0
    3.5121    2.0923   -1.5778 H   0  0  0  0  0  0  0  0  0  0  0  0
    4.5479    3.4087   -0.9697 H   0  0  0  0  0  0  0  0  0  0  0  0
    2.9647    5.1239   -2.0207 H   0  0  0  0  0  0  0  0  0  0  0  0
    1.9496    3.7712   -2.6309 H   0  0  0  0  0  0  0  0  0  0  0  0
    3.6237    3.9878   -3.2425 H   0  0  0  0  0  0  0  0  0  0  0  0
    3.5260    5.0855    0.4286 H   0  0  0  0  0  0  0  0  0  0  0  0
    2.1842    4.5553    1.5020 H   0  0  0  0  0  0  0  0  0  0  0  0
    4.4010    4.4759    2.7170 H   0  0  0  0  0  0  0  0  0  0  0  0
    5.0276    3.3008    1.5148 H   0  0  0  0  0  0  0  0  0  0  0  0
    3.6425    2.8524    2.5769 H   0  0  0  0  0  0  0  0  0  0  0  0
    2.7083    3.2152   -0.0053 N   0  0  0  0  0  0  0  0  0  0  0  0
    1.2512    1.2704   -1.0839 S   0  0  0  0  0  1  0  0  0  0  0  0
    0.7631    2.4198    1.6696 S   0  0  0  0  0  0  0  0  0  0  0  0
  1 18  2  0  0  0  0
  2  7  1  0  0  0  0
  2 16  1  0  0  0  0
  3  8  1  0  0  0  0
  3  2  1  0  0  0  0
  4 12  1  0  0  0  0
  4  5  1  0  0  0  0
  5 15  1  0  0  0  0
  5 13  1  0  0  0  0
  6  2  1  0  0  0  0
  9  3  1  0  0  0  0
 10  3  1  0  0  0  0
 11  4  1  0  0  0  0
 14  5  1  0  0  0  0
 16  1  1  0  0  0  0
 16  4  1  0  0  0  0
 17  1  1  0  0  0  0
M  END
