1
 OpenBabel05122313063D

 16 16  0  0  1  0  0  0  0  0999 V2000
   -2.3576    1.1020   -1.0973 S   0  0  0  0  0  1  0  0  0  0  0  0
   -4.7506    0.5355    0.0932 N   0  0  0  0  0  0  0  0  0  0  0  0
   -3.5059    0.1068   -0.3302 C   0  0  1  0  0  3  0  0  0  0  0  0
   -5.2159    1.8996   -0.0552 C   0  0  0  0  0  0  0  0  0  0  0  0
   -4.3642    2.5851    0.1237 H   0  0  0  0  0  0  0  0  0  0  0  0
   -6.0241    2.0911    0.6745 H   0  0  0  0  0  0  0  0  0  0  0  0
   -5.5911    2.0858   -1.0828 H   0  0  0  0  0  0  0  0  0  0  0  0
   -5.4524   -0.5188    0.6600 C   0  0  0  0  0  0  0  0  0  0  0  0
   -6.4609   -0.3956    1.0643 H   0  0  0  0  0  0  0  0  0  0  0  0
   -3.4545   -1.2349   -0.0093 N   0  0  0  0  0  0  0  0  0  0  0  0
   -2.3395   -2.1180   -0.2975 C   0  0  0  0  0  0  0  0  0  0  0  0
   -1.3968   -1.5273   -0.2734 H   0  0  0  0  0  0  0  0  0  0  0  0
   -2.2971   -2.9131    0.4693 H   0  0  0  0  0  0  0  0  0  0  0  0
   -2.4442   -2.5711   -1.3036 H   0  0  0  0  0  0  0  0  0  0  0  0
   -4.6419   -1.6208    0.5982 C   0  0  0  0  0  0  0  0  0  0  0  0
   -4.8065   -2.6469    0.9385 H   0  0  0  0  0  0  0  0  0  0  0  0
  2  8  1  0  0  0  0
  3  1  1  6  0  0  0
  3 10  1  0  0  0  0
  3  2  1  0  0  0  0
  4  2  1  0  0  0  0
  4  5  1  0  0  0  0
  4  6  1  0  0  0  0
  7  4  1  0  0  0  0
  8  9  1  0  0  0  0
 10 15  1  0  0  0  0
 11 12  1  0  0  0  0
 11 10  1  0  0  0  0
 11 13  1  0  0  0  0
 14 11  1  0  0  0  0
 15  8  2  0  0  0  0
 15 16  1  0  0  0  0
M  END
