1
 OpenBabel05122313063D

 14 13  0  0  0  0  0  0  0  0999 V2000
    0.6465    2.0475    0.4677 S   0  0  0  0  0  3  0  0  0  0  0  0
    1.2714    2.9621   -0.5494 O   0  0  0  0  0  1  0  0  0  0  0  0
    0.9448    2.3067    1.9003 O   0  0  0  0  0  1  0  0  0  0  0  0
   -1.0167    2.3167    0.3767 O   0  0  0  0  0  0  0  0  0  0  0  0
   -1.5528    2.5288   -0.9407 C   0  0  0  0  0  0  0  0  0  0  0  0
   -1.2200    1.7191   -1.6265 H   0  0  0  0  0  0  0  0  0  0  0  0
   -1.1697    3.4925   -1.3424 H   0  0  0  0  0  0  0  0  0  0  0  0
   -3.0705    2.5364   -0.8209 C   0  0  0  0  0  0  0  0  0  0  0  0
   -3.4844    2.6207   -1.8494 H   0  0  0  0  0  0  0  0  0  0  0  0
   -3.3936    1.5459   -0.4344 H   0  0  0  0  0  0  0  0  0  0  0  0
   -3.6101    3.6539    0.0716 C   0  0  0  0  0  0  0  0  0  0  0  0
   -4.7154    3.6160    0.1436 H   0  0  0  0  0  0  0  0  0  0  0  0
   -3.3297    4.6530   -0.3227 H   0  0  0  0  0  0  0  0  0  0  0  0
   -3.1944    3.5703    1.0949 H   0  0  0  0  0  0  0  0  0  0  0  0
  1  3  1  0  0  0  0
  2  1  1  0  0  0  0
  4  1  1  0  0  0  0
  5  8  1  0  0  0  0
  5  4  1  0  0  0  0
  6  5  1  0  0  0  0
  7  5  1  0  0  0  0
  8 10  1  0  0  0  0
  8 11  1  0  0  0  0
  9  8  1  0  0  0  0
 11 12  1  0  0  0  0
 11 14  1  0  0  0  0
 13 11  1  0  0  0  0
M  END
