1
 OpenBabel05122313063D

 25 26  0  0  0  0  0  0  0  0999 V2000
    1.2846   -0.9731    0.4704 S   0  0  0  0  0  1  0  0  0  0  0  0
    2.9930   -0.3155   -2.5477 S   0  0  0  0  0  1  0  0  0  0  0  0
    3.0053   -0.2436   -0.5644 P   0  0  0  0  0  4  0  0  0  0  0  0
    4.3561   -1.2627    0.1327 C   0  0  0  0  0  0  0  0  0  0  0  0
    5.6609   -0.7278    0.1484 C   0  0  0  0  0  0  0  0  0  0  0  0
    6.7283   -1.5075    0.6145 C   0  0  0  0  0  0  0  0  0  0  0  0
    6.5021   -2.8212    1.0579 C   0  0  0  0  0  0  0  0  0  0  0  0
    5.2039   -3.3548    1.0355 C   0  0  0  0  0  0  0  0  0  0  0  0
    4.1292   -2.5797    0.5751 C   0  0  0  0  0  0  0  0  0  0  0  0
    3.2390    1.4468    0.0980 C   0  0  0  0  0  0  0  0  0  0  0  0
    3.4836    1.6319    1.4735 C   0  0  0  0  0  0  0  0  0  0  0  0
    3.5657    2.9301    1.9929 C   0  0  0  0  0  0  0  0  0  0  0  0
    3.3904    4.0392    1.1470 C   0  0  0  0  0  0  0  0  0  0  0  0
    3.1409    3.8494   -0.2205 C   0  0  0  0  0  0  0  0  0  0  0  0
    3.0673    2.5527   -0.7507 C   0  0  0  0  0  0  0  0  0  0  0  0
    5.8369    0.3001   -0.2035 H   0  0  0  0  0  0  0  0  0  0  0  0
    7.7447   -1.0858    0.6301 H   0  0  0  0  0  0  0  0  0  0  0  0
    7.3424   -3.4311    1.4229 H   0  0  0  0  0  0  0  0  0  0  0  0
    5.0229   -4.3832    1.3830 H   0  0  0  0  0  0  0  0  0  0  0  0
    3.1085   -2.9909    0.5642 H   0  0  0  0  0  0  0  0  0  0  0  0
    3.6019    0.7597    2.1349 H   0  0  0  0  0  0  0  0  0  0  0  0
    3.7603    3.0786    3.0660 H   0  0  0  0  0  0  0  0  0  0  0  0
    3.4452    5.0579    1.5604 H   0  0  0  0  0  0  0  0  0  0  0  0
    2.9966    4.7171   -0.8818 H   0  0  0  0  0  0  0  0  0  0  0  0
    2.8591    2.3774   -1.8178 H   0  0  0  0  0  0  0  0  0  0  0  0
  2  3  1  0  0  0  0
  3 10  1  0  0  0  0
  3  4  1  0  0  0  0
  3  1  1  0  0  0  0
  4  5  2  0  0  0  0
  4  9  1  0  0  0  0
  5  6  1  0  0  0  0
  6 17  1  0  0  0  0
  6  7  2  0  0  0  0
  7 18  1  0  0  0  0
  8  7  1  0  0  0  0
  8 19  1  0  0  0  0
  9  8  2  0  0  0  0
 10 11  1  0  0  0  0
 11 12  2  0  0  0  0
 11 21  1  0  0  0  0
 12 22  1  0  0  0  0
 13 23  1  0  0  0  0
 13 12  1  0  0  0  0
 14 13  2  0  0  0  0
 15 14  1  0  0  0  0
 15 10  2  0  0  0  0
 16  5  1  0  0  0  0
 20  9  1  0  0  0  0
 24 14  1  0  0  0  0
 25 15  1  0  0  0  0
M  END
