1
 OpenBabel05122313063D

 11 11  0  0  1  0  0  0  0  0999 V2000
    1.9699   -0.4926   -1.5145 S   0  0  0  0  0  1  0  0  0  0  0  0
    3.5742   -0.2457   -1.0377 C   0  0  1  0  0  3  0  0  0  0  0  0
    4.6175   -0.4802   -1.8599 N   0  0  0  0  0  0  0  0  0  0  0  0
    4.4373   -0.7610   -2.8279 H   0  0  0  0  0  0  0  0  0  0  0  0
    5.9212    0.0205   -1.4298 C   0  0  0  0  0  0  0  0  0  0  0  0
    6.0834    1.0505   -1.8214 H   0  0  0  0  0  0  0  0  0  0  0  0
    6.7316   -0.6301   -1.8139 H   0  0  0  0  0  0  0  0  0  0  0  0
    5.8670    0.0104    0.0996 C   0  0  0  0  0  0  0  0  0  0  0  0
    6.5087    0.7861    0.5559 H   0  0  0  0  0  0  0  0  0  0  0  0
    6.1277   -0.9789    0.5254 H   0  0  0  0  0  0  0  0  0  0  0  0
    4.1011    0.3599    0.5178 S   0  0  0  0  0  0  0  0  0  0  0  0
  2  1  1  6  0  0  0
  2 11  1  0  0  0  0
  3  5  1  0  0  0  0
  3  2  1  0  0  0  0
  4  3  1  0  0  0  0
  5  8  1  0  0  0  0
  6  5  1  0  0  0  0
  7  5  1  0  0  0  0
  8 11  1  0  0  0  0
  8 10  1  0  0  0  0
  8  9  1  0  0  0  0
M  END
