1
 OpenBabel05122313063D

 19 18  0  0  0  0  0  0  0  0999 V2000
   -1.1052   -1.4248   -1.0265 S   0  0  0  0  0  1  0  0  0  0  0  0
    4.3045   -2.8460   -0.5326 P   0  0  0  0  0  0  0  0  0  0  0  0
    0.2941   -1.6399    0.1365 C   0  0  0  0  0  0  0  0  0  0  0  0
    1.5534   -2.0998   -0.6010 C   0  0  0  0  0  0  0  0  0  0  0  0
    2.7684   -2.1963    0.3278 C   0  0  0  0  0  0  0  0  0  0  0  0
    5.5353   -2.5545    0.8388 C   0  0  0  0  0  0  0  0  0  0  0  0
    4.7103   -1.3720   -1.6036 C   0  0  0  0  0  0  0  0  0  0  0  0
    0.4571   -0.6529    0.6253 H   0  0  0  0  0  0  0  0  0  0  0  0
    0.0291   -2.3646    0.9362 H   0  0  0  0  0  0  0  0  0  0  0  0
    1.3678   -3.0807   -1.0895 H   0  0  0  0  0  0  0  0  0  0  0  0
    1.7607   -1.3826   -1.4246 H   0  0  0  0  0  0  0  0  0  0  0  0
    2.5557   -2.9018    1.1613 H   0  0  0  0  0  0  0  0  0  0  0  0
    2.9822   -1.2078    0.7938 H   0  0  0  0  0  0  0  0  0  0  0  0
    5.4958   -1.5192    1.2396 H   0  0  0  0  0  0  0  0  0  0  0  0
    5.3377   -3.2649    1.6666 H   0  0  0  0  0  0  0  0  0  0  0  0
    6.5589   -2.7533    0.4627 H   0  0  0  0  0  0  0  0  0  0  0  0
    4.6908   -0.4151   -1.0394 H   0  0  0  0  0  0  0  0  0  0  0  0
    5.7200   -1.5071   -2.0409 H   0  0  0  0  0  0  0  0  0  0  0  0
    3.9901   -1.3062   -2.4431 H   0  0  0  0  0  0  0  0  0  0  0  0
  1  3  1  0  0  0  0
  2  5  1  0  0  0  0
  2  6  1  0  0  0  0
  3  8  1  0  0  0  0
  3  9  1  0  0  0  0
  4  3  1  0  0  0  0
  4  5  1  0  0  0  0
  5 13  1  0  0  0  0
  5 12  1  0  0  0  0
  6 14  1  0  0  0  0
  6 15  1  0  0  0  0
  7 17  1  0  0  0  0
  7  2  1  0  0  0  0
 10  4  1  0  0  0  0
 11  4  1  0  0  0  0
 16  6  1  0  0  0  0
 18  7  1  0  0  0  0
 19  7  1  0  0  0  0
M  END
