1
 OpenBabel05122313063D

 14 14  0  0  0  0  0  0  0  0999 V2000
    2.1392   -0.6778   -0.7794 S   0  0  0  0  0  1  0  0  0  0  0  0
    3.0969   -0.1244    0.5584 C   0  0  0  0  0  0  0  0  0  0  0  0
    4.4293   -0.3918    0.7092 N   0  0  0  0  0  0  0  0  0  0  0  0
    4.8757    0.2297    1.8358 N   0  0  0  0  0  0  0  0  0  0  0  0
    3.8497    0.8309    2.3503 N   0  0  0  0  0  0  0  0  0  0  0  0
    2.7309    0.6441    1.6003 N   0  0  0  0  0  0  0  0  0  0  0  0
    5.3215   -1.1299   -0.1752 C   0  0  0  0  0  0  0  0  0  0  0  0
    6.1671   -1.4851    0.4442 H   0  0  0  0  0  0  0  0  0  0  0  0
    4.7493   -2.0106   -0.5405 H   0  0  0  0  0  0  0  0  0  0  0  0
    5.7994   -0.2982   -1.3370 C   0  0  0  0  0  0  0  0  0  0  0  0
    5.0041    0.1004   -1.9920 H   0  0  0  0  0  0  0  0  0  0  0  0
    7.0910   -0.0439   -1.5979 C   0  0  0  0  0  0  0  0  0  0  0  0
    7.8957   -0.4313   -0.9507 H   0  0  0  0  0  0  0  0  0  0  0  0
    7.3933    0.5584   -2.4684 H   0  0  0  0  0  0  0  0  0  0  0  0
  1  2  1  0  0  0  0
  2  3  1  0  0  0  0
  2  6  2  0  0  0  0
  3  4  1  0  0  0  0
  4  5  2  0  0  0  0
  6  5  1  0  0  0  0
  7  8  1  0  0  0  0
  7  3  1  0  0  0  0
  9  7  1  0  0  0  0
 10  7  1  0  0  0  0
 11 10  1  0  0  0  0
 12 10  2  0  0  0  0
 12 13  1  0  0  0  0
 14 12  1  0  0  0  0
M  END
