1
 OpenBabel05122313063D

 13 13  0  0  0  0  0  0  0  0999 V2000
    2.1172   -0.6366   -0.8874 S   0  0  0  0  0  1  0  0  0  0  0  0
    3.1977   -0.0186    0.3272 C   0  0  0  0  0  0  0  0  0  0  0  0
    2.9529    0.8491    1.3248 N   0  0  0  0  0  0  0  0  0  0  0  0
    4.1373    1.0440    1.9615 N   0  0  0  0  0  0  0  0  0  0  0  0
    5.0904    0.3534    1.4181 N   0  0  0  0  0  0  0  0  0  0  0  0
    4.5257   -0.3367    0.3890 N   0  0  0  0  0  0  0  0  0  0  0  0
    5.3104   -1.1805   -0.4973 C   0  0  0  0  0  0  0  0  0  0  0  0
    6.1842   -1.5195    0.0923 H   0  0  0  0  0  0  0  0  0  0  0  0
    4.6874   -2.0668   -0.7395 H   0  0  0  0  0  0  0  0  0  0  0  0
    5.7373   -0.4512   -1.7694 C   0  0  0  0  0  0  0  0  0  0  0  0
    6.3354   -1.1242   -2.4150 H   0  0  0  0  0  0  0  0  0  0  0  0
    4.8506   -0.1179   -2.3448 H   0  0  0  0  0  0  0  0  0  0  0  0
    6.3534    0.4357   -1.5221 H   0  0  0  0  0  0  0  0  0  0  0  0
  1  2  1  0  0  0  0
  2  6  1  0  0  0  0
  2  3  2  0  0  0  0
  3  4  1  0  0  0  0
  5  4  2  0  0  0  0
  6  5  1  0  0  0  0
  7  8  1  0  0  0  0
  7  6  1  0  0  0  0
  9  7  1  0  0  0  0
 10 13  1  0  0  0  0
 10  7  1  0  0  0  0
 11 10  1  0  0  0  0
 12 10  1  0  0  0  0
M  END
