1
 OpenBabel05122313063D

 22 23  0  0  0  0  0  0  0  0999 V2000
   -1.4845   -1.9904   -1.0098 S   0  0  0  0  0  1  0  0  0  0  0  0
   -2.9137   -1.4452   -0.1659 C   0  0  0  0  0  0  0  0  0  0  0  0
   -4.4520   -1.9371   -0.8852 S   0  0  0  0  0  0  0  0  0  0  0  0
   -5.5571   -1.1477    0.2520 C   0  0  0  0  0  0  0  0  0  0  0  0
   -7.1972   -1.1992    0.1333 S   0  0  0  0  0  0  0  0  0  0  0  0
   -4.6731   -0.3060    1.5277 S   0  0  0  0  0  0  0  0  0  0  0  0
   -3.0385   -0.6746    0.9761 C   0  0  0  0  0  0  0  0  0  0  0  0
   -1.6898   -0.0251    1.9054 S   0  0  0  0  0  0  0  0  0  0  0  0
   -1.9903    1.7443    1.8273 C   0  0  0  0  0  0  0  0  0  0  0  0
   -1.6382    2.4971    2.8951 C   0  0  0  0  0  0  0  0  0  0  0  0
   -1.6666    3.5957    2.8388 H   0  0  0  0  0  0  0  0  0  0  0  0
   -1.2791    2.0356    3.8271 H   0  0  0  0  0  0  0  0  0  0  0  0
   -2.5573    2.3017    0.5715 C   0  0  0  0  0  0  0  0  0  0  0  0
   -2.1801    1.7407   -0.5962 N   0  0  0  0  0  0  0  0  0  0  0  0
   -2.6889    2.2104   -1.7434 C   0  0  0  0  0  0  0  0  0  0  0  0
   -3.6113    3.2664   -1.7935 C   0  0  0  0  0  0  0  0  0  0  0  0
   -4.0135    3.8528   -0.5848 C   0  0  0  0  0  0  0  0  0  0  0  0
   -3.4881    3.3614    0.6162 C   0  0  0  0  0  0  0  0  0  0  0  0
   -3.8086    3.7670    1.5861 H   0  0  0  0  0  0  0  0  0  0  0  0
   -4.7447    4.6750   -0.5753 H   0  0  0  0  0  0  0  0  0  0  0  0
   -4.0104    3.6095   -2.7588 H   0  0  0  0  0  0  0  0  0  0  0  0
   -2.3448    1.7137   -2.6668 H   0  0  0  0  0  0  0  0  0  0  0  0
  1  2  1  0  0  0  0
  2  7  2  0  0  0  0
  3  2  1  0  0  0  0
  3  4  1  0  0  0  0
  4  6  1  0  0  0  0
  5  4  2  0  0  0  0
  7  6  1  0  0  0  0
  7  8  1  0  0  0  0
  9  8  1  0  0  0  0
  9 10  2  0  0  0  0
 10 12  1  0  0  0  0
 11 10  1  0  0  0  0
 13 18  1  0  0  0  0
 13  9  1  0  0  0  0
 14 13  2  0  0  0  0
 15 14  1  0  0  0  0
 16 15  2  0  0  0  0
 16 17  1  0  0  0  0
 17 20  1  0  0  0  0
 17 18  2  0  0  0  0
 18 19  1  0  0  0  0
 21 16  1  0  0  0  0
 22 15  1  0  0  0  0
M  END
