1
 OpenBabel05122313063D

 30 30  0  0  1  0  0  0  0  0999 V2000
    2.1059   -1.2220   -0.2678 S   0  0  0  0  0  1  0  0  0  0  0  0
    4.6807   -0.4771   -0.1727 N   0  0  0  0  0  0  0  0  0  0  0  0
    5.3537    0.3187   -0.1971 H   0  0  0  0  0  0  0  0  0  0  0  0
    3.1346    1.2556   -0.0605 N   0  0  0  0  0  0  0  0  0  0  0  0
    2.1224    1.5482   -0.0189 H   0  0  0  0  0  0  0  0  0  0  0  0
    5.3077    2.0923   -0.0834 O   0  0  0  0  0  0  0  0  0  0  0  0
    3.4909    3.4531    0.0889 O   0  0  0  0  0  0  0  0  0  0  0  0
    5.1532   -1.8207   -0.2596 C   0  0  0  0  0  0  0  0  0  0  0  0
    5.0432   -2.6996    0.8473 C   0  0  0  0  0  0  0  0  0  0  0  0
    5.5726   -3.9965    0.6982 C   0  0  0  0  0  0  0  0  0  0  0  0
    5.4948   -4.6959    1.5454 H   0  0  0  0  0  0  0  0  0  0  0  0
    6.2011   -4.4072   -0.4858 C   0  0  0  0  0  0  0  0  0  0  0  0
    6.6063   -5.4273   -0.5649 H   0  0  0  0  0  0  0  0  0  0  0  0
    6.3195   -3.5154   -1.5621 C   0  0  0  0  0  0  0  0  0  0  0  0
    6.8140   -3.8259   -2.4945 H   0  0  0  0  0  0  0  0  0  0  0  0
    5.7938   -2.2227   -1.4451 C   0  0  0  0  0  0  0  0  0  0  0  0
    5.8613   -1.5083   -2.2789 H   0  0  0  0  0  0  0  0  0  0  0  0
    4.3945   -2.2669    2.1324 C   0  0  0  0  0  0  0  0  0  0  0  0
    4.7248   -1.2513    2.4304 H   0  0  0  0  0  0  0  0  0  0  0  0
    4.6276   -2.9694    2.9548 H   0  0  0  0  0  0  0  0  0  0  0  0
    3.2909   -2.2176    2.0117 H   0  0  0  0  0  0  0  0  0  0  0  0
    3.3862   -0.0980   -0.1544 C   0  0  1  0  0  3  0  0  0  0  0  0
    4.0884    2.2595   -0.0220 C   0  0  0  0  0  0  0  0  0  0  0  0
    4.3627    4.6038    0.1318 C   0  0  0  0  0  0  0  0  0  0  0  0
    4.9830    4.6174   -0.7894 H   0  0  0  0  0  0  0  0  0  0  0  0
    5.0591    4.4933    0.9898 H   0  0  0  0  0  0  0  0  0  0  0  0
    3.4858    5.8316    0.2549 C   0  0  0  0  0  0  0  0  0  0  0  0
    2.7981    5.9142   -0.6094 H   0  0  0  0  0  0  0  0  0  0  0  0
    4.1153    6.7424    0.2915 H   0  0  0  0  0  0  0  0  0  0  0  0
    2.8746    5.7897    1.1777 H   0  0  0  0  0  0  0  0  0  0  0  0
  2 22  1  0  0  0  0
  3  2  1  0  0  0  0
  4 23  1  0  0  0  0
  4  5  1  0  0  0  0
  6 23  2  0  0  0  0
  7 24  1  0  0  0  0
  8  2  1  0  0  0  0
  8  9  1  0  0  0  0
  9 18  1  0  0  0  0
 10  9  2  0  0  0  0
 10 11  1  0  0  0  0
 12 10  1  0  0  0  0
 13 12  1  0  0  0  0
 14 16  1  0  0  0  0
 14 12  2  0  0  0  0
 15 14  1  0  0  0  0
 16  8  2  0  0  0  0
 17 16  1  0  0  0  0
 18 19  1  0  0  0  0
 18 20  1  0  0  0  0
 21 18  1  0  0  0  0
 22  1  1  6  0  0  0
 22  4  1  0  0  0  0
 23  7  1  0  0  0  0
 24 27  1  0  0  0  0
 24 26  1  0  0  0  0
 25 24  1  0  0  0  0
 27 29  1  0  0  0  0
 27 30  1  0  0  0  0
 28 27  1  0  0  0  0
M  END
