2
 OpenBabel05122313063D

 12 11  0  0  0  0  0  0  0  0999 V2000
    1.2253    1.3214   -1.6959 S   0  0  0  0  0  0  0  0  0  0  0  0
    1.1066    2.2642    1.0583 S   0  0  0  0  0  1  0  0  0  0  0  0
    1.8243    3.8833   -1.0075 N   0  0  0  0  0  0  0  0  0  0  0  0
    1.4392    2.6345   -0.6176 C   0  0  0  0  0  0  0  0  0  0  0  0
    2.1282    4.9222   -0.0395 C   0  0  0  0  0  0  0  0  0  0  0  0
    2.1955    4.1508   -2.3857 C   0  0  0  0  0  0  0  0  0  0  0  0
    1.7867    5.9041   -0.4262 H   0  0  0  0  0  0  0  0  0  0  0  0
    3.2217    4.9853    0.1628 H   0  0  0  0  0  0  0  0  0  0  0  0
    1.6100    4.7068    0.9136 H   0  0  0  0  0  0  0  0  0  0  0  0
    1.8740    5.1749   -2.6642 H   0  0  0  0  0  0  0  0  0  0  0  0
    3.2966    4.0728   -2.5343 H   0  0  0  0  0  0  0  0  0  0  0  0
    1.7026    3.4135   -3.0467 H   0  0  0  0  0  0  0  0  0  0  0  0
  1  4  2  0  0  0  0
  3  4  1  0  0  0  0
  3  5  1  0  0  0  0
  4  2  1  0  0  0  0
  5  8  1  0  0  0  0
  5  9  1  0  0  0  0
  6  3  1  0  0  0  0
  7  5  1  0  0  0  0
 10  6  1  0  0  0  0
 11  6  1  0  0  0  0
 12  6  1  0  0  0  0
M  END
