1
 OpenBabel05122313063D

 15 15  0  0  0  0  0  0  0  0999 V2000
    2.0982   -1.0442   -1.5487 S   0  0  0  0  0  1  0  0  0  0  0  0
    3.0186   -1.3319   -0.1010 C   0  0  0  0  0  3  0  0  0  0  0  0
    4.1680   -2.0262   -0.2190 N   0  0  0  0  0  0  0  0  0  0  0  0
    4.3706   -2.3912   -1.1520 H   0  0  0  0  0  0  0  0  0  0  0  0
    5.0645   -2.3293    0.8961 C   0  0  0  0  0  0  0  0  0  0  0  0
    6.1052   -2.3400    0.5163 H   0  0  0  0  0  0  0  0  0  0  0  0
    4.8481   -3.3479    1.2895 H   0  0  0  0  0  0  0  0  0  0  0  0
    4.8928   -1.2806    1.9941 C   0  0  0  0  0  0  0  0  0  0  0  0
    5.4560   -1.5847    2.8971 H   0  0  0  0  0  0  0  0  0  0  0  0
    5.3106   -0.3109    1.6525 H   0  0  0  0  0  0  0  0  0  0  0  0
    3.4111   -1.1118    2.3265 C   0  0  0  0  0  0  0  0  0  0  0  0
    3.0205   -2.0156    2.8461 H   0  0  0  0  0  0  0  0  0  0  0  0
    3.2453   -0.2514    3.0045 H   0  0  0  0  0  0  0  0  0  0  0  0
    2.6500   -0.8726    1.1021 N   0  0  0  0  0  0  0  0  0  0  0  0
    1.7686   -0.3208    1.1527 H   0  0  0  0  0  0  0  0  0  0  0  0
  1  2  1  0  0  0  0
  2 14  1  0  0  0  0
  3  2  1  0  0  0  0
  3  5  1  0  0  0  0
  4  3  1  0  0  0  0
  5  7  1  0  0  0  0
  5  8  1  0  0  0  0
  6  5  1  0  0  0  0
  8 11  1  0  0  0  0
  8  9  1  0  0  0  0
 10  8  1  0  0  0  0
 11 12  1  0  0  0  0
 11 13  1  0  0  0  0
 14 15  1  0  0  0  0
 14 11  1  0  0  0  0
M  END
