1
 OpenBabel05122313063D

 31 31  0  0  1  0  0  0  0  0999 V2000
    0.6732    3.0848   -0.2200 S   0  0  0  0  0  1  0  0  0  0  0  0
   -4.6266    0.9368    0.0036 O   0  0  0  0  0  0  0  0  0  0  0  0
   -5.4242    1.1938    0.5055 H   0  0  0  0  0  0  0  0  0  0  0  0
   -2.2832    0.7555   -1.2102 N   0  0  0  0  0  0  0  0  0  0  0  0
   -1.0521    1.2966   -1.2241 N   0  0  0  0  0  0  0  0  0  0  0  0
   -0.1757    0.7374   -1.2732 H   0  0  0  0  0  0  0  0  0  0  0  0
   -2.0342    3.1795   -0.3484 N   0  0  0  0  0  0  0  0  0  0  0  0
   -2.8673    2.5927   -0.5386 H   0  0  0  0  0  0  0  0  0  0  0  0
   -4.8794   -0.2914   -0.5388 C   0  0  0  0  0  0  0  0  0  0  0  0
   -6.1592   -0.8608   -0.3893 C   0  0  0  0  0  0  0  0  0  0  0  0
   -6.9304   -0.2870    0.1527 H   0  0  0  0  0  0  0  0  0  0  0  0
   -6.4628   -2.1251   -0.9067 C   0  0  0  0  0  0  0  0  0  0  0  0
   -7.4730   -2.5404   -0.7744 H   0  0  0  0  0  0  0  0  0  0  0  0
   -5.4721   -2.8489   -1.5859 C   0  0  0  0  0  0  0  0  0  0  0  0
   -5.6895   -3.8442   -1.9992 H   0  0  0  0  0  0  0  0  0  0  0  0
   -4.1966   -2.2936   -1.7286 C   0  0  0  0  0  0  0  0  0  0  0  0
   -3.4250   -2.8721   -2.2547 H   0  0  0  0  0  0  0  0  0  0  0  0
   -3.8554   -1.0139   -1.2281 C   0  0  0  0  0  0  0  0  0  0  0  0
   -2.4689   -0.5222   -1.3744 C   0  0  0  0  0  0  0  0  0  0  0  0
   -0.8999    2.5156   -0.6102 C   0  0  1  0  0  3  0  0  0  0  0  0
   -2.1416    4.2735    0.6065 C   0  0  0  0  0  0  0  0  0  0  0  0
   -2.9476    4.9534    0.2603 H   0  0  0  0  0  0  0  0  0  0  0  0
   -1.1941    4.8460    0.5742 H   0  0  0  0  0  0  0  0  0  0  0  0
   -2.4145    3.7588    2.0209 C   0  0  0  0  0  0  0  0  0  0  0  0
   -3.3608    3.1808    2.0577 H   0  0  0  0  0  0  0  0  0  0  0  0
   -2.4956    4.6008    2.7371 H   0  0  0  0  0  0  0  0  0  0  0  0
   -1.5930    3.0899    2.3476 H   0  0  0  0  0  0  0  0  0  0  0  0
   -1.3677   -1.5158   -1.6507 C   0  0  0  0  0  0  0  0  0  0  0  0
   -0.3568   -1.1008   -1.4768 H   0  0  0  0  0  0  0  0  0  0  0  0
   -1.4036   -1.8773   -2.6997 H   0  0  0  0  0  0  0  0  0  0  0  0
   -1.4688   -2.3917   -0.9801 H   0  0  0  0  0  0  0  0  0  0  0  0
  2  3  1  0  0  0  0
  5  4  1  0  0  0  0
  5 20  1  0  0  0  0
  6  5  1  0  0  0  0
  7 21  1  0  0  0  0
  8  7  1  0  0  0  0
  9 10  1  0  0  0  0
  9  2  1  0  0  0  0
 10 11  1  0  0  0  0
 12 13  1  0  0  0  0
 12 10  2  0  0  0  0
 14 12  1  0  0  0  0
 15 14  1  0  0  0  0
 16 14  2  0  0  0  0
 16 18  1  0  0  0  0
 17 16  1  0  0  0  0
 18  9  2  0  0  0  0
 19 18  1  0  0  0  0
 19  4  2  0  0  0  0
 20  7  1  0  0  0  0
 20  1  1  1  0  0  0
 21 24  1  0  0  0  0
 22 21  1  0  0  0  0
 23 21  1  0  0  0  0
 24 25  1  0  0  0  0
 24 27  1  0  0  0  0
 24 26  1  0  0  0  0
 28 29  1  0  0  0  0
 28 19  1  0  0  0  0
 28 31  1  0  0  0  0
 30 28  1  0  0  0  0
M  END
