1
 OpenBabel05122313063D

 15 15  0  0  0  0  0  0  0  0999 V2000
    1.0439   -2.5575    0.1222 S   0  0  0  0  0  1  0  0  0  0  0  0
    5.3323    2.7393   -0.6688 O   0  0  0  0  0  0  0  0  0  0  0  0
    6.6456    1.2228    0.3741 O   0  0  0  0  0  0  0  0  0  0  0  0
    7.2454    1.9902    0.2592 H   0  0  0  0  0  0  0  0  0  0  0  0
    2.2928   -1.3080    0.0109 C   0  0  0  0  0  0  0  0  0  0  0  0
    2.1068   -0.0453   -0.6111 C   0  0  0  0  0  0  0  0  0  0  0  0
    1.1343    0.1863   -1.0721 H   0  0  0  0  0  0  0  0  0  0  0  0
    3.1411    0.8886   -0.6564 C   0  0  0  0  0  0  0  0  0  0  0  0
    2.9988    1.8705   -1.1324 H   0  0  0  0  0  0  0  0  0  0  0  0
    4.4056    0.5934   -0.1029 C   0  0  0  0  0  0  0  0  0  0  0  0
    4.6075   -0.6705    0.4942 C   0  0  0  0  0  0  0  0  0  0  0  0
    5.5900   -0.9112    0.9242 H   0  0  0  0  0  0  0  0  0  0  0  0
    3.5697   -1.6029    0.5532 C   0  0  0  0  0  0  0  0  0  0  0  0
    3.7300   -2.5780    1.0372 H   0  0  0  0  0  0  0  0  0  0  0  0
    5.4641    1.6272   -0.1762 C   0  0  0  0  0  0  0  0  0  0  0  0
  2 15  2  0  0  0  0
  4  3  1  0  0  0  0
  5  1  1  0  0  0  0
  5 13  1  0  0  0  0
  6  5  2  0  0  0  0
  7  6  1  0  0  0  0
  8  6  1  0  0  0  0
  8 10  2  0  0  0  0
  9  8  1  0  0  0  0
 10 11  1  0  0  0  0
 11 13  2  0  0  0  0
 11 12  1  0  0  0  0
 13 14  1  0  0  0  0
 15 10  1  0  0  0  0
 15  3  1  0  0  0  0
M  END
