3
 OpenBabel05122313063D

 23 24  0  0  0  0  0  0  0  0999 V2000
   -4.0221   -1.6703    0.1166 N   0  0  0  0  0  0  0  0  0  0  0  0
   -1.8755   -2.4681    1.5241 S   0  0  0  0  0  0  0  0  0  0  0  0
   -1.7589   -0.7078   -0.9349 S   0  0  0  0  0  1  0  0  0  0  0  0
   -2.6525   -1.6246    0.2719 C   0  0  0  0  0  0  0  0  0  0  0  0
   -4.8041   -2.7714    0.6955 C   0  0  0  0  0  0  0  0  0  0  0  0
   -5.6684   -2.3418    1.2476 H   0  0  0  0  0  0  0  0  0  0  0  0
   -4.1491   -3.2965    1.4154 H   0  0  0  0  0  0  0  0  0  0  0  0
   -5.2671   -3.6755   -0.4470 C   0  0  0  0  0  0  0  0  0  0  0  0
   -4.3613   -4.0527   -0.9664 H   0  0  0  0  0  0  0  0  0  0  0  0
   -5.7990   -4.5616   -0.0445 H   0  0  0  0  0  0  0  0  0  0  0  0
   -6.1698   -2.8972   -1.4150 C   0  0  0  0  0  0  0  0  0  0  0  0
   -7.2251   -2.9518   -1.0662 H   0  0  0  0  0  0  0  0  0  0  0  0
   -6.1675   -3.3717   -2.4189 H   0  0  0  0  0  0  0  0  0  0  0  0
   -5.8108   -1.4290   -1.5425 C   0  0  0  0  0  0  0  0  0  0  0  0
   -6.5620   -0.5915   -2.3925 C   0  0  0  0  0  0  0  0  0  0  0  0
   -7.3678   -1.0417   -2.9945 H   0  0  0  0  0  0  0  0  0  0  0  0
   -6.3100    0.7817   -2.4826 C   0  0  0  0  0  0  0  0  0  0  0  0
   -6.9082    1.4092   -3.1602 H   0  0  0  0  0  0  0  0  0  0  0  0
   -5.3034    1.3536   -1.6844 C   0  0  0  0  0  0  0  0  0  0  0  0
   -5.1094    2.4366   -1.7146 H   0  0  0  0  0  0  0  0  0  0  0  0
   -4.5464    0.5473   -0.8320 C   0  0  0  0  0  0  0  0  0  0  0  0
   -3.7732    0.9913   -0.1938 H   0  0  0  0  0  0  0  0  0  0  0  0
   -4.7682   -0.8467   -0.7808 C   0  0  0  0  0  0  0  0  0  0  0  0
  1  4  1  0  0  0  0
  1  5  1  0  0  0  0
  3  4  1  0  0  0  0
  4  2  2  0  0  0  0
  5  6  1  0  0  0  0
  5  7  1  0  0  0  0
  8 10  1  0  0  0  0
  8  5  1  0  0  0  0
  9  8  1  0  0  0  0
 11 12  1  0  0  0  0
 11  8  1  0  0  0  0
 13 11  1  0  0  0  0
 14 11  1  0  0  0  0
 14 23  1  0  0  0  0
 15 14  2  0  0  0  0
 16 15  1  0  0  0  0
 17 15  1  0  0  0  0
 17 19  2  0  0  0  0
 18 17  1  0  0  0  0
 19 21  1  0  0  0  0
 20 19  1  0  0  0  0
 21 23  2  0  0  0  0
 21 22  1  0  0  0  0
 23  1  1  0  0  0  0
M  END
