1
 OpenBabel05122313063D

  8  7  0  0  0  0  0  0  0  0999 V2000
   -0.2183    0.0859    2.1207 S   0  0  0  0  0  1  0  0  0  0  0  0
   -1.4260    1.3003    2.7878 C   0  0  0  0  0  0  0  0  0  0  0  0
   -2.4537    0.9341    2.5860 H   0  0  0  0  0  0  0  0  0  0  0  0
   -1.2893    1.2740    3.8893 H   0  0  0  0  0  0  0  0  0  0  0  0
   -1.2434    2.7220    2.2640 C   0  0  0  0  0  0  0  0  0  0  0  0
   -0.2052    3.0750    2.4293 H   0  0  0  0  0  0  0  0  0  0  0  0
   -1.9369    3.4258    2.7729 H   0  0  0  0  0  0  0  0  0  0  0  0
   -1.4502    2.7789    1.1774 H   0  0  0  0  0  0  0  0  0  0  0  0
  1  2  1  0  0  0  0
  2  4  1  0  0  0  0
  3  2  1  0  0  0  0
  5  6  1  0  0  0  0
  5  7  1  0  0  0  0
  5  2  1  0  0  0  0
  8  5  1  0  0  0  0
M  END
