1
 OpenBabel05122313063D

 25 26  0  0  0  0  0  0  0  0999 V2000
    0.5056   -0.8269    0.0001 S   0  0  0  0  0  1  0  0  0  0  0  0
   -0.6136    0.3791    0.0000 N   0  0  0  0  0  2  0  0  0  0  0  0
   -1.8961    0.0817    0.0000 N   0  0  0  0  0  0  0  0  0  0  0  0
   -2.5591   -1.9465    1.2238 C   0  0  0  0  0  0  0  0  0  0  0  0
   -2.9744   -3.2856    1.2175 C   0  0  0  0  0  0  0  0  0  0  0  0
   -3.1816   -3.9539   -0.0001 C   0  0  0  0  0  0  0  0  0  0  0  0
   -2.9750   -3.2854   -1.2176 C   0  0  0  0  0  0  0  0  0  0  0  0
   -2.5597   -1.9462   -1.2238 C   0  0  0  0  0  0  0  0  0  0  0  0
   -2.3614   -1.2878    0.0000 C   0  0  0  0  0  0  0  0  0  0  0  0
   -2.3649    2.4956   -0.0001 C   0  0  0  0  0  0  0  0  0  0  0  0
   -3.2942    3.5405   -0.0001 C   0  0  0  0  0  0  0  0  0  0  0  0
   -4.6759    3.2787   -0.0001 C   0  0  0  0  0  0  0  0  0  0  0  0
   -5.1255    1.9501    0.0001 C   0  0  0  0  0  0  0  0  0  0  0  0
   -4.2116    0.8874    0.0001 C   0  0  0  0  0  0  0  0  0  0  0  0
   -2.8278    1.1614    0.0000 C   0  0  0  0  0  0  0  0  0  0  0  0
   -2.3877   -1.4064    2.1661 H   0  0  0  0  0  0  0  0  0  0  0  0
   -3.1360   -3.8101    2.1709 H   0  0  0  0  0  0  0  0  0  0  0  0
   -3.5063   -5.0051   -0.0001 H   0  0  0  0  0  0  0  0  0  0  0  0
   -3.1370   -3.8097   -2.1711 H   0  0  0  0  0  0  0  0  0  0  0  0
   -2.3888   -1.4060   -2.1661 H   0  0  0  0  0  0  0  0  0  0  0  0
   -1.2848    2.6916   -0.0001 H   0  0  0  0  0  0  0  0  0  0  0  0
   -2.9299    4.5789   -0.0002 H   0  0  0  0  0  0  0  0  0  0  0  0
   -5.3979    4.1085   -0.0001 H   0  0  0  0  0  0  0  0  0  0  0  0
   -6.2036    1.7301    0.0002 H   0  0  0  0  0  0  0  0  0  0  0  0
   -4.5702   -0.1506    0.0002 H   0  0  0  0  0  0  0  0  0  0  0  0
  2  1  1  0  0  0  0
  3  2  1  0  0  0  0
  4 16  1  0  0  0  0
  5  4  1  0  0  0  0
  5 17  1  0  0  0  0
  6  5  2  0  0  0  0
  7  6  1  0  0  0  0
  8  7  2  0  0  0  0
  8  9  1  0  0  0  0
  9  3  1  0  0  0  0
  9  4  2  0  0  0  0
 10 15  1  0  0  0  0
 11 10  2  0  0  0  0
 11 12  1  0  0  0  0
 12 13  2  0  0  0  0
 13 14  1  0  0  0  0
 13 24  1  0  0  0  0
 14 25  1  0  0  0  0
 15  3  1  0  0  0  0
 15 14  2  0  0  0  0
 18  6  1  0  0  0  0
 19  7  1  0  0  0  0
 20  8  1  0  0  0  0
 21 10  1  0  0  0  0
 22 11  1  0  0  0  0
 23 12  1  0  0  0  0
M  END
