1
 OpenBabel05122313063D

 24 24  0  0  0  0  0  0  0  0999 V2000
    2.5941    2.0525   -1.1361 S   0  0  0  0  0  1  0  0  0  0  0  0
    0.8775    2.3426   -0.6763 C   0  0  0  0  0  0  0  0  0  0  0  0
   -0.1794    1.7462   -1.3967 C   0  0  0  0  0  0  0  0  0  0  0  0
    0.0512    1.0843   -2.2445 H   0  0  0  0  0  0  0  0  0  0  0  0
   -1.5080    1.9834   -1.0282 C   0  0  0  0  0  0  0  0  0  0  0  0
   -2.3052    1.4916   -1.6069 H   0  0  0  0  0  0  0  0  0  0  0  0
   -1.8419    2.8277    0.0556 C   0  0  0  0  0  0  0  0  0  0  0  0
   -0.7749    3.4274    0.7552 C   0  0  0  0  0  0  0  0  0  0  0  0
   -0.9770    4.0946    1.6041 H   0  0  0  0  0  0  0  0  0  0  0  0
    0.5628    3.1904    0.4019 C   0  0  0  0  0  0  0  0  0  0  0  0
    1.3782    3.6612    0.9709 H   0  0  0  0  0  0  0  0  0  0  0  0
   -3.3175    3.0613    0.4233 C   0  0  0  0  0  0  0  0  0  0  0  0
   -3.4736    4.0140    1.6210 C   0  0  0  0  0  0  0  0  0  0  0  0
   -2.9888    3.6126    2.5337 H   0  0  0  0  0  0  0  0  0  0  0  0
   -4.5488    4.1557    1.8499 H   0  0  0  0  0  0  0  0  0  0  0  0
   -3.0430    5.0138    1.4113 H   0  0  0  0  0  0  0  0  0  0  0  0
   -3.9744    1.7103    0.7885 C   0  0  0  0  0  0  0  0  0  0  0  0
   -3.4655    1.2421    1.6556 H   0  0  0  0  0  0  0  0  0  0  0  0
   -3.9395    0.9934   -0.0557 H   0  0  0  0  0  0  0  0  0  0  0  0
   -5.0411    1.8569    1.0556 H   0  0  0  0  0  0  0  0  0  0  0  0
   -4.0506    3.6772   -0.7904 C   0  0  0  0  0  0  0  0  0  0  0  0
   -4.0099    3.0134   -1.6766 H   0  0  0  0  0  0  0  0  0  0  0  0
   -3.5979    4.6483   -1.0749 H   0  0  0  0  0  0  0  0  0  0  0  0
   -5.1194    3.8517   -0.5487 H   0  0  0  0  0  0  0  0  0  0  0  0
  1  2  1  0  0  0  0
  2 10  1  0  0  0  0
  3  5  1  0  0  0  0
  3  2  2  0  0  0  0
  4  3  1  0  0  0  0
  5  7  2  0  0  0  0
  6  5  1  0  0  0  0
  7 12  1  0  0  0  0
  7  8  1  0  0  0  0
  8  9  1  0  0  0  0
 10  8  2  0  0  0  0
 10 11  1  0  0  0  0
 12 17  1  0  0  0  0
 12 13  1  0  0  0  0
 13 15  1  0  0  0  0
 13 14  1  0  0  0  0
 16 13  1  0  0  0  0
 17 20  1  0  0  0  0
 17 18  1  0  0  0  0
 19 17  1  0  0  0  0
 21 24  1  0  0  0  0
 21 12  1  0  0  0  0
 22 21  1  0  0  0  0
 23 21  1  0  0  0  0
M  END
