1
 OpenBabel05122313063D

 23 24  0  0  0  0  0  0  0  0999 V2000
    1.0350   -0.2593   -0.9707 S   0  0  0  0  0  0  0  0  0  0  0  0
    2.2721    1.0059   -0.6192 C   0  0  0  0  0  0  0  0  0  0  0  0
    1.9682    2.3125   -1.0386 C   0  0  0  0  0  0  0  0  0  0  0  0
    2.9219    3.3215   -0.8564 C   0  0  0  0  0  0  0  0  0  0  0  0
    3.5046    0.6896   -0.0323 C   0  0  0  0  0  0  0  0  0  0  0  0
    4.4498    1.7137    0.1398 C   0  0  0  0  0  0  0  0  0  0  0  0
    4.1627    3.0244   -0.2679 C   0  0  0  0  0  0  0  0  0  0  0  0
    1.6283   -1.7319   -0.1277 C   0  0  0  0  0  0  0  0  0  0  0  0
    2.1121   -2.7704   -0.9429 C   0  0  0  0  0  0  0  0  0  0  0  0
    2.5842   -3.9447   -0.3362 C   0  0  0  0  0  0  0  0  0  0  0  0
    2.5685   -4.0689    1.0619 C   0  0  0  0  0  0  0  0  0  0  0  0
    2.0827   -3.0203    1.8625 C   0  0  0  0  0  0  0  0  0  0  0  0
    1.6040   -1.8409    1.2751 C   0  0  0  0  0  0  0  0  0  0  0  0
    0.9886    2.5440   -1.4840 H   0  0  0  0  0  0  0  0  0  0  0  0
    2.6907    4.3490   -1.1735 H   0  0  0  0  0  0  0  0  0  0  0  0
    3.7303   -0.3360    0.2906 H   0  0  0  0  0  0  0  0  0  0  0  0
    5.4196    1.4775    0.6022 H   0  0  0  0  0  0  0  0  0  0  0  0
    4.9079    3.8205   -0.1254 H   0  0  0  0  0  0  0  0  0  0  0  0
    2.1258   -2.6571   -2.0371 H   0  0  0  0  0  0  0  0  0  0  0  0
    2.9684   -4.7638   -0.9619 H   0  0  0  0  0  0  0  0  0  0  0  0
    2.9399   -4.9909    1.5333 H   0  0  0  0  0  0  0  0  0  0  0  0
    2.0752   -3.1197    2.9582 H   0  0  0  0  0  0  0  0  0  0  0  0
    1.2286   -1.0056    1.8861 H   0  0  0  0  0  0  0  0  0  0  0  0
  1  2  1  0  0  0  0
  1  8  1  0  0  0  0
  2  5  1  0  0  0  0
  3  4  1  0  0  0  0
  3  2  2  0  0  0  0
  4  7  2  0  0  0  0
  5  6  2  0  0  0  0
  5 16  1  0  0  0  0
  6 17  1  0  0  0  0
  7 18  1  0  0  0  0
  7  6  1  0  0  0  0
  8 13  1  0  0  0  0
  9 10  1  0  0  0  0
  9  8  2  0  0  0  0
 10 11  2  0  0  0  0
 11 21  1  0  0  0  0
 11 12  1  0  0  0  0
 12 22  1  0  0  0  0
 13 12  2  0  0  0  0
 13 23  1  0  0  0  0
 14  3  1  0  0  0  0
 15  4  1  0  0  0  0
 19  9  1  0  0  0  0
 20 10  1  0  0  0  0
M  END
