1
 OpenBabel05122313063D

 14 14  0  0  0  0  0  0  0  0999 V2000
    1.7145   -2.1094   -1.6695 S   0  0  0  0  0  1  0  0  0  0  0  0
    2.9359   -1.0347   -0.9969 C   0  0  0  0  0  0  0  0  0  0  0  0
    3.6606    0.9721    0.2130 C   0  0  0  0  0  0  0  0  0  0  0  0
    3.4459    1.9041    0.7528 H   0  0  0  0  0  0  0  0  0  0  0  0
    5.3255   -0.5881   -0.6636 C   0  0  0  0  0  0  0  0  0  0  0  0
    6.3844   -0.8523   -0.7865 H   0  0  0  0  0  0  0  0  0  0  0  0
    6.0702    1.4283    0.5794 N   0  0  0  0  0  0  0  0  0  0  0  0
    2.6419    0.1707   -0.3022 C   0  0  0  0  0  0  0  0  0  0  0  0
    1.5951    0.4921   -0.1831 H   0  0  0  0  0  0  0  0  0  0  0  0
    5.7429    2.4516    1.1911 O   0  0  0  0  0  0  0  0  0  0  0  0
    4.9991    0.5879    0.0338 C   0  0  0  0  0  0  0  0  0  0  0  0
    4.3030   -1.3875   -1.1716 C   0  0  0  0  0  0  0  0  0  0  0  0
    4.5459   -2.3148   -1.7114 H   0  0  0  0  0  0  0  0  0  0  0  0
    7.2365    1.0640    0.3967 O   0  0  0  0  0  0  0  0  0  0  0  0
  1  2  1  0  0  0  0
  2  8  1  0  0  0  0
  3  4  1  0  0  0  0
  5 11  2  0  0  0  0
  6  5  1  0  0  0  0
  7 10  2  0  0  0  0
  8  9  1  0  0  0  0
  8  3  2  0  0  0  0
 11  3  1  0  0  0  0
 11  7  1  0  0  0  0
 12  2  2  0  0  0  0
 12  5  1  0  0  0  0
 13 12  1  0  0  0  0
 14  7  2  0  0  0  0
M  END
