9
 OpenBabel05122313063D

 22 22  0  0  0  0  0  0  0  0999 V2000
    5.3171   -0.5991    0.7034 S   0  0  0  0  0  0  0  0  0  0  0  0
    4.1575    0.6397    0.3650 C   0  0  0  0  0  0  0  0  0  0  0  0
    4.2713    1.6349    0.8066 H   0  0  0  0  0  0  0  0  0  0  0  0
    3.1543    0.1613   -0.4617 C   0  0  0  0  0  0  0  0  0  0  0  0
    3.3221   -1.2178   -0.8261 C   0  0  0  0  0  0  0  0  0  0  0  0
    2.6028   -1.7621   -1.4549 H   0  0  0  0  0  0  0  0  0  0  0  0
    4.4567   -1.7563   -0.2605 C   0  0  0  0  0  0  0  0  0  0  0  0
    4.8383   -2.7803   -0.3547 H   0  0  0  0  0  0  0  0  0  0  0  0
    1.7681    1.0881   -1.0883 S   0  0  0  0  0  0  0  0  0  0  0  0
    1.9895    2.7246   -0.2991 C   0  0  0  0  0  0  0  0  0  0  0  0
    2.0416    2.5593    0.7956 H   0  0  0  0  0  0  0  0  0  0  0  0
    2.9489    3.1305   -0.6823 H   0  0  0  0  0  0  0  0  0  0  0  0
    0.8005    3.6148   -0.6531 C   0  0  0  0  0  0  0  0  0  0  0  0
    0.7688    3.7937   -1.7500 H   0  0  0  0  0  0  0  0  0  0  0  0
   -0.1318    3.0742   -0.3819 H   0  0  0  0  0  0  0  0  0  0  0  0
    0.8373    4.9465    0.1040 C   0  0  0  0  0  0  0  0  0  0  0  0
    0.8433    4.7275    1.1938 H   0  0  0  0  0  0  0  0  0  0  0  0
    1.7914    5.4765   -0.1134 H   0  0  0  0  0  0  0  0  0  0  0  0
   -0.3486    5.8495   -0.2353 C   0  0  0  0  0  0  0  0  0  0  0  0
   -0.3134    6.8000    0.3336 H   0  0  0  0  0  0  0  0  0  0  0  0
   -1.3105    5.3499    0.0037 H   0  0  0  0  0  0  0  0  0  0  0  0
   -0.3681    6.1047   -1.3154 H   0  0  0  0  0  0  0  0  0  0  0  0
  2  1  1  0  0  0  0
  2  3  1  0  0  0  0
  4  2  2  0  0  0  0
  5  4  1  0  0  0  0
  5  7  2  0  0  0  0
  6  5  1  0  0  0  0
  7  1  1  0  0  0  0
  8  7  1  0  0  0  0
  9  4  1  0  0  0  0
  9 10  1  0  0  0  0
 10 11  1  0  0  0  0
 12 10  1  0  0  0  0
 13 15  1  0  0  0  0
 13 10  1  0  0  0  0
 13 16  1  0  0  0  0
 14 13  1  0  0  0  0
 16 17  1  0  0  0  0
 18 16  1  0  0  0  0
 19 21  1  0  0  0  0
 19 16  1  0  0  0  0
 19 20  1  0  0  0  0
 22 19  1  0  0  0  0
M  END
