2
 OpenBabel05122313063D

 16 15  0  0  0  0  0  0  0  0999 V2000
   -2.1746    0.9912    1.3875 S   0  0  0  0  0  0  0  0  0  0  0  0
   -2.1747   -0.9913   -1.3874 S   0  0  0  0  0  0  0  0  0  0  0  0
   -2.4232    2.6697    0.7419 C   0  0  0  0  0  0  0  0  0  0  0  0
   -2.4125    2.6871   -0.3634 H   0  0  0  0  0  0  0  0  0  0  0  0
   -1.5676    3.2590    1.1215 H   0  0  0  0  0  0  0  0  0  0  0  0
   -3.3635    3.0830    1.1525 H   0  0  0  0  0  0  0  0  0  0  0  0
   -3.6380    0.1008    0.7537 C   0  0  0  0  0  0  0  0  0  0  0  0
   -3.6346   -0.8629    1.3014 H   0  0  0  0  0  0  0  0  0  0  0  0
   -4.5394    0.6585    1.0826 H   0  0  0  0  0  0  0  0  0  0  0  0
   -3.6379   -0.1002   -0.7539 C   0  0  0  0  0  0  0  0  0  0  0  0
   -3.6338    0.8634   -1.3016 H   0  0  0  0  0  0  0  0  0  0  0  0
   -4.5394   -0.6575   -1.0830 H   0  0  0  0  0  0  0  0  0  0  0  0
   -2.4238   -2.6696   -0.7413 C   0  0  0  0  0  0  0  0  0  0  0  0
   -2.4131   -2.6868    0.3640 H   0  0  0  0  0  0  0  0  0  0  0  0
   -1.5683   -3.2592   -1.1207 H   0  0  0  0  0  0  0  0  0  0  0  0
   -3.3641   -3.0828   -1.1519 H   0  0  0  0  0  0  0  0  0  0  0  0
  2 10  1  0  0  0  0
  2 13  1  0  0  0  0
  3  5  1  0  0  0  0
  3  6  1  0  0  0  0
  3  1  1  0  0  0  0
  4  3  1  0  0  0  0
  7  9  1  0  0  0  0
  7  8  1  0  0  0  0
  7  1  1  0  0  0  0
 10  7  1  0  0  0  0
 11 10  1  0  0  0  0
 12 10  1  0  0  0  0
 13 14  1  0  0  0  0
 15 13  1  0  0  0  0
 16 13  1  0  0  0  0
M  END
