1
 OpenBabel05122313063D

 21 21  0  0  1  0  0  0  0  0999 V2000
   -0.7288   -0.0001   -1.5369 S   0  0  0  0  0  0  0  0  0  0  0  0
   -1.9177    1.4178   -1.3044 C   0  0  1  0  0  0  0  0  0  0  0  0
   -2.6702    1.5367    0.3431 S   0  0  0  0  0  0  0  0  0  0  0  0
   -3.6702    0.0002    0.3594 C   0  0  1  0  0  0  0  0  0  0  0  0
   -2.6703   -1.5364    0.3435 S   0  0  0  0  0  0  0  0  0  0  0  0
   -1.9178   -1.4180   -1.3040 C   0  0  2  0  0  0  0  0  0  0  0  0
   -1.1938    2.7196   -1.6237 C   0  0  0  0  0  0  0  0  0  0  0  0
   -4.5301    0.0003    1.6198 C   0  0  0  0  0  0  0  0  0  0  0  0
   -1.1942   -2.7200   -1.6231 C   0  0  0  0  0  0  0  0  0  0  0  0
   -2.7180    1.2168   -2.0497 H   0  0  0  0  0  0  0  0  0  0  0  0
   -4.3055    0.0001   -0.5532 H   0  0  0  0  0  0  0  0  0  0  0  0
   -2.7181   -1.2171   -2.0494 H   0  0  0  0  0  0  0  0  0  0  0  0
   -0.4107    2.9343   -0.8707 H   0  0  0  0  0  0  0  0  0  0  0  0
   -1.9163    3.5595   -1.6253 H   0  0  0  0  0  0  0  0  0  0  0  0
   -0.7094    2.6594   -2.6184 H   0  0  0  0  0  0  0  0  0  0  0  0
   -3.8974    0.0004    2.5298 H   0  0  0  0  0  0  0  0  0  0  0  0
   -5.1750   -0.9003    1.6420 H   0  0  0  0  0  0  0  0  0  0  0  0
   -5.1750    0.9010    1.6418 H   0  0  0  0  0  0  0  0  0  0  0  0
   -0.4119   -2.9353   -0.8693 H   0  0  0  0  0  0  0  0  0  0  0  0
   -0.7087   -2.6597   -2.6172 H   0  0  0  0  0  0  0  0  0  0  0  0
   -1.9170   -3.5595   -1.6256 H   0  0  0  0  0  0  0  0  0  0  0  0
  1  2  1  0  0  0  0
  1  6  1  0  0  0  0
  2 10  1  6  0  0  0
  2  3  1  0  0  0  0
  3  4  1  0  0  0  0
  4 11  1  6  0  0  0
  4  8  1  0  0  0  0
  5  4  1  0  0  0  0
  6 12  1  6  0  0  0
  6  5  1  0  0  0  0
  7  2  1  0  0  0  0
  7 13  1  0  0  0  0
  8 18  1  0  0  0  0
  8 17  1  0  0  0  0
  8 16  1  0  0  0  0
  9  6  1  0  0  0  0
  9 19  1  0  0  0  0
 14  7  1  0  0  0  0
 15  7  1  0  0  0  0
 20  9  1  0  0  0  0
 21  9  1  0  0  0  0
M  END
