1
 OpenBabel05122313063D

 21 21  0  0  0  0  0  0  0  0999 V2000
    3.2823    0.9979   -0.3426 S   0  0  0  0  0  1  0  0  0  0  0  0
    1.2048   -0.9454   -1.5653 N   0  0  0  0  0  0  0  0  0  0  0  0
    2.4034   -1.5076   -1.2851 N   0  0  0  0  0  2  0  0  0  0  0  0
   -0.3223    0.9697   -2.4575 O   0  0  0  0  0  0  0  0  0  0  0  0
    0.1629   -1.7415   -1.5979 C   0  0  0  0  0  0  0  0  0  0  0  0
   -1.1629   -1.2256   -1.8681 C   0  0  0  0  0  0  0  0  0  0  0  0
    4.5940   -1.2704   -0.6754 N   0  0  0  0  0  4  0  0  0  0  0  0
   -1.3606    0.1395   -2.2620 C   0  0  0  0  0  0  0  0  0  0  0  0
    3.3527   -0.7205   -0.8278 C   0  0  0  0  0  0  0  0  0  0  0  0
   -2.2980   -2.0566   -1.7027 C   0  0  0  0  0  0  0  0  0  0  0  0
   -2.6717    0.6267   -2.4394 C   0  0  0  0  0  0  0  0  0  0  0  0
   -3.5921   -1.5633   -1.8776 C   0  0  0  0  0  0  0  0  0  0  0  0
   -3.7717   -0.2126   -2.2405 C   0  0  0  0  0  0  0  0  0  0  0  0
    0.5171    0.4394   -2.2339 H   0  0  0  0  0  0  0  0  0  0  0  0
    0.2894   -2.8188   -1.3651 H   0  0  0  0  0  0  0  0  0  0  0  0
    4.7814   -2.1612   -1.1370 H   0  0  0  0  0  0  0  0  0  0  0  0
    5.3645   -0.6858   -0.3603 H   0  0  0  0  0  0  0  0  0  0  0  0
   -2.1357   -3.1054   -1.4084 H   0  0  0  0  0  0  0  0  0  0  0  0
   -2.7951    1.6815   -2.7231 H   0  0  0  0  0  0  0  0  0  0  0  0
   -4.4619   -2.2209   -1.7344 H   0  0  0  0  0  0  0  0  0  0  0  0
   -4.7878    0.1903   -2.3706 H   0  0  0  0  0  0  0  0  0  0  0  0
  2  3  1  0  0  0  0
  3  9  1  0  0  0  0
  4  8  1  0  0  0  0
  4 14  1  0  0  0  0
  5  2  2  0  0  0  0
  5 15  1  0  0  0  0
  6 10  1  0  0  0  0
  6  5  1  0  0  0  0
  7 17  1  0  0  0  0
  8  6  2  0  0  0  0
  9  7  2  0  0  0  0
  9  1  1  0  0  0  0
 10 18  1  0  0  0  0
 11  8  1  0  0  0  0
 11 13  2  0  0  0  0
 12 20  1  0  0  0  0
 12 10  2  0  0  0  0
 13 12  1  0  0  0  0
 16  7  1  0  0  0  0
 19 11  1  0  0  0  0
 21 13  1  0  0  0  0
M  END
