2
 OpenBabel05122313063D

 30 33  0  0  0  0  0  0  0  0999 V2000
    1.2963    0.9477    1.4458 N   0  0  0  0  0  0  0  0  0  0  0  0
   -3.1319   -0.4707    0.8254 S   0  0  0  0  0  1  0  0  0  0  0  0
   -1.5174   -1.6256    3.2174 B   0  0  1  0  0  0  0  0  0  0  0  0
   -3.1171   -1.0643    2.7280 B   0  0  1  0  0  0  0  0  0  0  0  0
   -1.9755   -2.0355    1.5664 B   0  0  2  0  0  0  0  0  0  0  0  0
   -0.2971   -1.4795    1.9153 B   0  0  0  0  0  0  0  0  0  0  0  0
   -0.3913   -0.2415    3.1995 B   0  0  2  0  0  0  0  0  0  0  0  0
    0.5148   -0.1368    4.0016 H   0  0  0  0  0  0  0  0  0  0  0  0
   -2.0787    0.0248    3.6451 B   0  0  1  0  0  0  0  0  0  0  0  0
   -0.0945    0.2524    1.5160 B   0  0  0  0  0  0  0  0  0  0  0  0
   -1.2577    1.2159    2.6159 B   0  0  0  0  0  0  0  0  0  0  0  0
   -0.9108    2.3141    3.0026 H   0  0  0  0  0  0  0  0  0  0  0  0
   -2.9781    0.7300    2.3264 B   0  0  1  0  0  0  0  0  0  0  0  0
   -1.4431   -2.5082    4.0439 H   0  0  0  0  0  0  0  0  0  0  0  0
   -4.1623   -1.5607    3.0740 H   0  0  0  0  0  0  0  0  0  0  0  0
   -2.3667   -3.1269    1.2319 H   0  0  0  0  0  0  0  0  0  0  0  0
    0.6681   -2.2195    1.9924 H   0  0  0  0  0  0  0  0  0  0  0  0
   -2.3572    0.3758    4.7715 H   0  0  0  0  0  0  0  0  0  0  0  0
   -3.9452    1.4506    2.4464 H   0  0  0  0  0  0  0  0  0  0  0  0
   -1.1004    1.1483    1.3020 H   0  0  0  0  0  0  0  0  0  0  0  0
    2.3817    0.3076    1.9587 C   0  0  0  0  0  3  0  0  0  0  0  0
    3.6213    0.9354    2.0505 C   0  0  0  0  0  0  0  0  0  0  0  0
    3.7607    2.2550    1.5975 C   0  0  0  0  0  0  0  0  0  0  0  0
    2.6394    2.9002    1.0585 C   0  0  0  0  0  0  0  0  0  0  0  0
    1.4212    2.2245    1.0045 C   0  0  0  0  0  0  0  0  0  0  0  0
    2.2002   -0.7147    2.3099 H   0  0  0  0  0  0  0  0  0  0  0  0
    4.4659    0.3813    2.4794 H   0  0  0  0  0  0  0  0  0  0  0  0
    4.7289    2.7726    1.6660 H   0  0  0  0  0  0  0  0  0  0  0  0
    2.6825    3.9345    0.6913 H   0  0  0  0  0  0  0  0  0  0  0  0
    0.5068    2.6970    0.6311 H   0  0  0  0  0  0  0  0  0  0  0  0
  1 10  1  0  0  0  0
  1 21  1  0  0  0  0
  2  5  1  0  0  0  0
  3 14  1  1  0  0  0
  4 15  1  1  0  0  0
  4  3  1  0  0  0  0
  4  9  1  0  0  0  0
  5 16  1  6  0  0  0
  5  6  1  0  0  0  0
  5  3  1  0  0  0  0
  6 17  1  0  0  0  0
  7  3  1  0  0  0  0
  7  9  1  0  0  0  0
  7  8  1  1  0  0  0
  9 18  1  1  0  0  0
 10  6  1  0  0  0  0
 10  7  1  0  0  0  0
 11 12  1  0  0  0  0
 13 19  1  1  0  0  0
 13 11  1  0  0  0  0
 13  4  1  0  0  0  0
 13  9  1  0  0  0  0
 20 11  1  0  0  0  0
 21 22  1  0  0  0  0
 21 26  1  0  0  0  0
 22 27  1  0  0  0  0
 23 28  1  0  0  0  0
 23 22  2  0  0  0  0
 24 23  1  0  0  0  0
 25 24  2  0  0  0  0
 25  1  1  0  0  0  0
 29 24  1  0  0  0  0
 30 25  1  0  0  0  0
M  END
