1
 OpenBabel05122313063D

 13 13  0  0  0  0  0  0  0  0999 V2000
    2.5886   -1.8479   -0.9652 S   0  0  0  0  0  0  0  0  0  0  0  0
    2.5039   -3.6067   -0.3746 C   0  0  0  0  0  0  0  0  0  0  0  0
    1.5705   -3.6827    0.2151 H   0  0  0  0  0  0  0  0  0  0  0  0
    2.4270   -4.2498   -1.2698 H   0  0  0  0  0  0  0  0  0  0  0  0
    3.7583   -3.8303    0.4715 C   0  0  0  0  0  0  0  0  0  0  0  0
    3.6057   -4.6931    1.1521 H   0  0  0  0  0  0  0  0  0  0  0  0
    4.6294   -4.0683   -0.1765 H   0  0  0  0  0  0  0  0  0  0  0  0
    4.0094   -2.5283    1.2408 C   0  0  0  0  0  0  0  0  0  0  0  0
    4.9834   -2.5304    1.7723 H   0  0  0  0  0  0  0  0  0  0  0  0
    3.1990   -2.3764    1.9829 H   0  0  0  0  0  0  0  0  0  0  0  0
    3.9536   -1.4023    0.2094 C   0  0  0  0  0  0  0  0  0  0  0  0
    4.8785   -1.3374   -0.3988 H   0  0  0  0  0  0  0  0  0  0  0  0
    3.7252   -0.4083    0.6366 H   0  0  0  0  0  0  0  0  0  0  0  0
  1  2  1  0  0  0  0
  1 11  1  0  0  0  0
  2  3  1  0  0  0  0
  2  5  1  0  0  0  0
  4  2  1  0  0  0  0
  5  6  1  0  0  0  0
  5  8  1  0  0  0  0
  7  5  1  0  0  0  0
  8  9  1  0  0  0  0
  8 10  1  0  0  0  0
 11 13  1  0  0  0  0
 11  8  1  0  0  0  0
 12 11  1  0  0  0  0
M  END
