1
 OpenBabel05122313063D

 41 40  0  0  0  0  0  0  0  0999 V2000
    2.1006   -1.2874   -1.5213 S   0  0  0  0  0  1  0  0  0  0  0  0
    2.8007    0.1379   -0.2721 P   0  0  0  0  0  4  0  0  0  0  0  0
    4.6429    0.2422   -0.3272 C   0  0  0  0  0  0  0  0  0  0  0  0
    4.9343    0.7848    0.5983 H   0  0  0  0  0  0  0  0  0  0  0  0
    5.0028   -0.8021   -0.2165 H   0  0  0  0  0  0  0  0  0  0  0  0
    5.2618    0.9129   -1.5617 C   0  0  0  0  0  0  0  0  0  0  0  0
    4.8741    1.9513   -1.6591 H   0  0  0  0  0  0  0  0  0  0  0  0
    6.3506    1.0279   -1.3638 H   0  0  0  0  0  0  0  0  0  0  0  0
    5.0707    0.1692   -2.8878 C   0  0  0  0  0  0  0  0  0  0  0  0
    3.9870    0.0557   -3.1028 H   0  0  0  0  0  0  0  0  0  0  0  0
    5.4519   -0.8697   -2.7787 H   0  0  0  0  0  0  0  0  0  0  0  0
    5.7686    0.8648   -4.0558 C   0  0  0  0  0  0  0  0  0  0  0  0
    5.6223    0.3097   -5.0035 H   0  0  0  0  0  0  0  0  0  0  0  0
    5.3749    1.8919   -4.2081 H   0  0  0  0  0  0  0  0  0  0  0  0
    6.8622    0.9534   -3.8843 H   0  0  0  0  0  0  0  0  0  0  0  0
    2.3565   -0.1812    1.4769 C   0  0  0  0  0  0  0  0  0  0  0  0
    2.6715    0.7014    2.0750 H   0  0  0  0  0  0  0  0  0  0  0  0
    1.2460   -0.2281    1.4817 H   0  0  0  0  0  0  0  0  0  0  0  0
    2.9193   -1.4878    2.0407 C   0  0  0  0  0  0  0  0  0  0  0  0
    2.5775   -2.3189    1.3889 H   0  0  0  0  0  0  0  0  0  0  0  0
    4.0316   -1.4801    2.0075 H   0  0  0  0  0  0  0  0  0  0  0  0
    2.4487   -1.7464    3.4757 C   0  0  0  0  0  0  0  0  0  0  0  0
    2.7852   -0.9132    4.1337 H   0  0  0  0  0  0  0  0  0  0  0  0
    1.3379   -1.7300    3.4786 H   0  0  0  0  0  0  0  0  0  0  0  0
    2.9374   -3.0855    4.0256 C   0  0  0  0  0  0  0  0  0  0  0  0
    2.5966   -3.2476    5.0679 H   0  0  0  0  0  0  0  0  0  0  0  0
    2.5491   -3.9238    3.4115 H   0  0  0  0  0  0  0  0  0  0  0  0
    4.0460   -3.1507    4.0210 H   0  0  0  0  0  0  0  0  0  0  0  0
    2.1482    1.7990   -0.6981 C   0  0  0  0  0  0  0  0  0  0  0  0
    2.3755    1.9407   -1.7762 H   0  0  0  0  0  0  0  0  0  0  0  0
    1.0450    1.6761   -0.6321 H   0  0  0  0  0  0  0  0  0  0  0  0
    2.6418    2.9828    0.1413 C   0  0  0  0  0  0  0  0  0  0  0  0
    3.7426    3.0894    0.0368 H   0  0  0  0  0  0  0  0  0  0  0  0
    2.4515    2.7901    1.2198 H   0  0  0  0  0  0  0  0  0  0  0  0
    0.4722    4.3737    0.0768 C   0  0  0  0  0  0  0  0  0  0  0  0
    0.0364    5.3426   -0.2393 H   0  0  0  0  0  0  0  0  0  0  0  0
   -0.1053    3.5693   -0.4245 H   0  0  0  0  0  0  0  0  0  0  0  0
    0.3012    4.2708    1.1687 H   0  0  0  0  0  0  0  0  0  0  0  0
    1.9658    4.3074   -0.2520 C   0  0  0  0  0  0  0  0  0  0  0  0
    2.4941    5.1376    0.2641 H   0  0  0  0  0  0  0  0  0  0  0  0
    2.1211    4.4802   -1.3399 H   0  0  0  0  0  0  0  0  0  0  0  0
  1  2  1  0  0  0  0
  2 16  1  0  0  0  0
  3  2  1  0  0  0  0
  3  5  1  0  0  0  0
  3  4  1  0  0  0  0
  6  8  1  0  0  0  0
  6  3  1  0  0  0  0
  7  6  1  0  0  0  0
  9 11  1  0  0  0  0
  9  6  1  0  0  0  0
 10  9  1  0  0  0  0
 12 15  1  0  0  0  0
 12  9  1  0  0  0  0
 13 12  1  0  0  0  0
 14 12  1  0  0  0  0
 16 18  1  0  0  0  0
 16 19  1  0  0  0  0
 16 17  1  0  0  0  0
 19 22  1  0  0  0  0
 20 19  1  0  0  0  0
 21 19  1  0  0  0  0
 22 24  1  0  0  0  0
 22 25  1  0  0  0  0
 22 23  1  0  0  0  0
 25 26  1  0  0  0  0
 27 25  1  0  0  0  0
 28 25  1  0  0  0  0
 29 31  1  0  0  0  0
 29  2  1  0  0  0  0
 29 32  1  0  0  0  0
 30 29  1  0  0  0  0
 32 34  1  0  0  0  0
 33 32  1  0  0  0  0
 35 38  1  0  0  0  0
 36 35  1  0  0  0  0
 37 35  1  0  0  0  0
 39 35  1  0  0  0  0
 39 32  1  0  0  0  0
 39 40  1  0  0  0  0
 41 39  1  0  0  0  0
M  END
