1
 OpenBabel05122313063D

 28 30  0  0  1  0  0  0  0  0999 V2000
   -0.4459    1.1000    0.0296 S   0  0  0  0  0  1  0  0  0  0  0  0
    0.2044   -1.7695   -0.0866 S   0  0  0  0  0  0  0  0  0  0  0  0
    2.1834   -2.5832   -0.1222 S   0  0  0  0  0  0  0  0  0  0  0  0
    0.7387   -0.1068   -0.0459 C   0  0  2  0  0  3  0  0  0  0  0  0
    2.1621    0.1065   -0.0387 C   0  0  0  0  0  0  0  0  0  0  0  0
    2.9742   -1.0252   -0.0672 C   0  0  0  0  0  0  0  0  0  0  0  0
    2.7097    1.4855    0.0729 C   0  0  0  0  0  0  0  0  0  0  0  0
    3.5310    1.8343    1.1655 C   0  0  0  0  0  0  0  0  0  0  0  0
    3.7495    1.0816    1.9375 H   0  0  0  0  0  0  0  0  0  0  0  0
    4.0631    3.1264    1.2667 C   0  0  0  0  0  0  0  0  0  0  0  0
    4.7005    3.3882    2.1247 H   0  0  0  0  0  0  0  0  0  0  0  0
    3.7807    4.0844    0.2796 C   0  0  0  0  0  0  0  0  0  0  0  0
    4.1990    5.0991    0.3601 H   0  0  0  0  0  0  0  0  0  0  0  0
    2.9588    3.7464   -0.8072 C   0  0  0  0  0  0  0  0  0  0  0  0
    2.7317    4.4942   -1.5819 H   0  0  0  0  0  0  0  0  0  0  0  0
    2.4215    2.4556   -0.9105 C   0  0  0  0  0  0  0  0  0  0  0  0
    1.7778    2.1903   -1.7619 H   0  0  0  0  0  0  0  0  0  0  0  0
    4.4495   -1.0697   -0.0931 C   0  0  0  0  0  0  0  0  0  0  0  0
    5.1483   -2.0356    0.6688 C   0  0  0  0  0  0  0  0  0  0  0  0
    4.5841   -2.7275    1.3131 H   0  0  0  0  0  0  0  0  0  0  0  0
    6.5474   -2.0948    0.6307 C   0  0  0  0  0  0  0  0  0  0  0  0
    7.0775   -2.8446    1.2367 H   0  0  0  0  0  0  0  0  0  0  0  0
    7.2684   -1.1959   -0.1705 C   0  0  0  0  0  0  0  0  0  0  0  0
    8.3675   -1.2414   -0.1994 H   0  0  0  0  0  0  0  0  0  0  0  0
    6.5825   -0.2386   -0.9372 C   0  0  0  0  0  0  0  0  0  0  0  0
    7.1424    0.4621   -1.5746 H   0  0  0  0  0  0  0  0  0  0  0  0
    5.1854   -0.1719   -0.9024 C   0  0  0  0  0  0  0  0  0  0  0  0
    4.6527    0.5711   -1.5115 H   0  0  0  0  0  0  0  0  0  0  0  0
  2  4  1  0  0  0  0
  3  2  1  0  0  0  0
  3  6  1  0  0  0  0
  4  5  1  0  0  0  0
  4  1  1  1  0  0  0
  5  7  1  0  0  0  0
  6  5  2  0  0  0  0
  7  8  1  0  0  0  0
  8 10  2  0  0  0  0
  8  9  1  0  0  0  0
 10 11  1  0  0  0  0
 12 13  1  0  0  0  0
 12 10  1  0  0  0  0
 14 12  2  0  0  0  0
 15 14  1  0  0  0  0
 16 14  1  0  0  0  0
 16  7  2  0  0  0  0
 17 16  1  0  0  0  0
 18  6  1  0  0  0  0
 18 19  1  0  0  0  0
 19 20  1  0  0  0  0
 21 19  2  0  0  0  0
 21 22  1  0  0  0  0
 23 21  1  0  0  0  0
 24 23  1  0  0  0  0
 25 27  1  0  0  0  0
 25 23  2  0  0  0  0
 26 25  1  0  0  0  0
 27 18  2  0  0  0  0
 28 27  1  0  0  0  0
M  END
