1
 OpenBabel05122313063D

 21 23  0  0  0  0  0  0  0  0999 V2000
   -2.5152   -0.2873   -0.8165 S   0  0  0  0  0  1  0  0  0  0  0  0
   -1.5726   -2.0950   -1.3686 B   0  0  0  0  0  0  0  0  0  0  0  0
   -3.4215   -2.0668   -0.9182 B   0  0  1  0  0  0  0  0  0  0  0  0
   -3.6654   -1.0577    0.6176 B   0  0  1  0  0  0  0  0  0  0  0  0
   -1.9828   -0.4202    1.2218 B   0  0  2  0  0  0  0  0  0  0  0  0
   -0.9560   -1.8516    1.5539 B   0  0  0  0  0  2  0  0  0  0  0  0
   -0.7401   -2.8431    0.0303 B   0  0  0  0  0  0  0  0  0  0  0  0
   -2.3633   -3.4073   -0.5018 B   0  0  0  0  0  0  0  0  0  0  0  0
   -3.5684   -2.8268    0.6755 B   0  0  2  0  0  0  0  0  0  0  0  0
   -2.7307   -1.8396    1.9025 B   0  0  2  0  0  0  0  0  0  0  0  0
   -1.9541   -3.3045    1.2400 B   0  0  2  0  0  0  0  0  0  0  0  0
   -1.3118   -2.0974   -2.5444 H   0  0  0  0  0  0  0  0  0  0  0  0
   -4.2476   -2.0340   -1.7977 H   0  0  0  0  0  0  0  0  0  0  0  0
   -4.6504   -0.3749    0.7594 H   0  0  0  0  0  0  0  0  0  0  0  0
   -2.0589    0.6508    1.7655 H   0  0  0  0  0  0  0  0  0  0  0  0
   -0.2141   -1.8565    2.5137 H   0  0  0  0  0  0  0  0  0  0  0  0
    0.1524   -3.6412   -0.1467 H   0  0  0  0  0  0  0  0  0  0  0  0
   -2.5080   -4.4512   -1.0976 H   0  0  0  0  0  0  0  0  0  0  0  0
   -4.5782   -3.4427    0.9306 H   0  0  0  0  0  0  0  0  0  0  0  0
   -3.1485   -1.7452    3.0355 H   0  0  0  0  0  0  0  0  0  0  0  0
   -1.8026   -4.2988    1.9150 H   0  0  0  0  0  0  0  0  0  0  0  0
  1  5  1  0  0  0  0
  2  8  1  0  0  0  0
  2  7  1  0  0  0  0
  3 13  1  6  0  0  0
  3  8  1  0  0  0  0
  3  4  1  0  0  0  0
  3  9  1  0  0  0  0
  4  9  1  0  0  0  0
  4 14  1  1  0  0  0
  4 10  1  0  0  0  0
  5  6  1  0  0  0  0
  5 15  1  1  0  0  0
  5 10  1  0  0  0  0
  6 16  1  0  0  0  0
  7 11  1  0  0  0  0
  9 19  1  1  0  0  0
  9 11  1  0  0  0  0
 10 20  1  1  0  0  0
 11 10  1  0  0  0  0
 11 21  1  1  0  0  0
 12  2  1  0  0  0  0
 17  7  1  0  0  0  0
 18  8  1  0  0  0  0
M  END
