1
 OpenBabel05122313063D

 22 22  0  0  0  0  0  0  0  0999 V2000
    2.9479    2.1910   -1.0137 S   0  0  0  0  0  1  0  0  0  0  0  0
    5.3337    2.0935   -0.0979 O   0  0  0  0  0  0  0  0  0  0  0  0
    4.2945    0.0947    0.2745 N   0  0  0  0  0  0  0  0  0  0  0  0
    4.2462    1.2903   -0.1933 C   0  0  0  0  0  0  0  0  0  0  0  0
    3.3354   -0.8945    0.1426 C   0  0  0  0  0  0  0  0  0  0  0  0
    2.6016   -1.3448    1.2666 C   0  0  0  0  0  0  0  0  0  0  0  0
    2.7542   -0.8377    2.2305 H   0  0  0  0  0  0  0  0  0  0  0  0
    1.7136   -2.4245    1.1605 C   0  0  0  0  0  0  0  0  0  0  0  0
    1.1543   -2.7479    2.0524 H   0  0  0  0  0  0  0  0  0  0  0  0
    1.5187   -3.1043   -0.0564 C   0  0  0  0  0  0  0  0  0  0  0  0
    2.2510   -2.6512   -1.1770 C   0  0  0  0  0  0  0  0  0  0  0  0
    2.1305   -3.1675   -2.1443 H   0  0  0  0  0  0  0  0  0  0  0  0
    3.1321   -1.5685   -1.0910 C   0  0  0  0  0  0  0  0  0  0  0  0
    3.6967   -1.2320   -1.9727 H   0  0  0  0  0  0  0  0  0  0  0  0
    0.5560   -4.2598   -0.1709 C   0  0  0  0  0  0  0  0  0  0  0  0
    1.0314   -5.1457   -0.6414 H   0  0  0  0  0  0  0  0  0  0  0  0
   -0.3217   -3.9939   -0.7998 H   0  0  0  0  0  0  0  0  0  0  0  0
    0.1715   -4.5647    0.8217 H   0  0  0  0  0  0  0  0  0  0  0  0
    6.5035    1.5010    0.4641 C   0  0  0  0  0  0  0  0  0  0  0  0
    7.2827    2.2851    0.4365 H   0  0  0  0  0  0  0  0  0  0  0  0
    6.8236    0.6125   -0.1194 H   0  0  0  0  0  0  0  0  0  0  0  0
    6.3208    1.1697    1.5075 H   0  0  0  0  0  0  0  0  0  0  0  0
  1  4  1  0  0  0  0
  2 19  1  0  0  0  0
  4  2  1  0  0  0  0
  4  3  2  0  0  0  0
  5  3  1  0  0  0  0
  5  6  1  0  0  0  0
  6  7  1  0  0  0  0
  8  6  2  0  0  0  0
  8  9  1  0  0  0  0
 10  8  1  0  0  0  0
 11 13  1  0  0  0  0
 11 10  2  0  0  0  0
 12 11  1  0  0  0  0
 13  5  2  0  0  0  0
 14 13  1  0  0  0  0
 15 10  1  0  0  0  0
 15 18  1  0  0  0  0
 16 15  1  0  0  0  0
 17 15  1  0  0  0  0
 19 22  1  0  0  0  0
 20 19  1  0  0  0  0
 21 19  1  0  0  0  0
M  END
