1
 OpenBabel05122313063D

 22 22  0  0  0  0  0  0  0  0999 V2000
   -2.3387   -0.9302   -0.0617 S   0  0  0  0  0  1  0  0  0  0  0  0
   -1.9582    1.6644   -0.3747 O   0  0  0  0  0  0  0  0  0  0  0  0
   -4.1736    1.1058   -0.3010 N   0  0  0  0  0  0  0  0  0  0  0  0
   -2.9477    0.7287   -0.2704 C   0  0  0  0  0  0  0  0  0  0  0  0
   -5.2857    0.2645   -0.2916 C   0  0  0  0  0  0  0  0  0  0  0  0
   -6.3520    0.5688    0.5856 C   0  0  0  0  0  0  0  0  0  0  0  0
   -6.2357    1.4362    1.2537 H   0  0  0  0  0  0  0  0  0  0  0  0
   -7.5277   -0.2007    0.6176 C   0  0  0  0  0  0  0  0  0  0  0  0
   -8.6276    0.1171    1.6016 C   0  0  0  0  0  0  0  0  0  0  0  0
   -9.6258   -0.1453    1.1974 H   0  0  0  0  0  0  0  0  0  0  0  0
   -8.6360    1.1915    1.8728 H   0  0  0  0  0  0  0  0  0  0  0  0
   -8.4980   -0.4566    2.5450 H   0  0  0  0  0  0  0  0  0  0  0  0
   -7.6460   -1.2880   -0.2732 C   0  0  0  0  0  0  0  0  0  0  0  0
   -8.5654   -1.8947   -0.2732 H   0  0  0  0  0  0  0  0  0  0  0  0
   -6.6036   -1.5911   -1.1623 C   0  0  0  0  0  0  0  0  0  0  0  0
   -6.7096   -2.4360   -1.8608 H   0  0  0  0  0  0  0  0  0  0  0  0
   -5.4277   -0.8310   -1.1768 C   0  0  0  0  0  0  0  0  0  0  0  0
   -4.6138   -1.0681   -1.8765 H   0  0  0  0  0  0  0  0  0  0  0  0
   -2.3883    3.0142   -0.5648 C   0  0  0  0  0  0  0  0  0  0  0  0
   -1.4611    3.6135   -0.6391 H   0  0  0  0  0  0  0  0  0  0  0  0
   -3.0138    3.3576    0.2847 H   0  0  0  0  0  0  0  0  0  0  0  0
   -2.9900    3.1147   -1.4911 H   0  0  0  0  0  0  0  0  0  0  0  0
  2  4  1  0  0  0  0
  3  5  1  0  0  0  0
  3  4  2  0  0  0  0
  4  1  1  0  0  0  0
  5  6  1  0  0  0  0
  6  8  2  0  0  0  0
  6  7  1  0  0  0  0
  8  9  1  0  0  0  0
  9 11  1  0  0  0  0
  9 12  1  0  0  0  0
 10  9  1  0  0  0  0
 13 14  1  0  0  0  0
 13  8  1  0  0  0  0
 15 13  2  0  0  0  0
 16 15  1  0  0  0  0
 17 15  1  0  0  0  0
 17  5  2  0  0  0  0
 18 17  1  0  0  0  0
 19  2  1  0  0  0  0
 19 21  1  0  0  0  0
 20 19  1  0  0  0  0
 22 19  1  0  0  0  0
M  END
