1
 OpenBabel05122313063D

 21 21  0  0  0  0  0  0  0  0999 V2000
   -2.3618    0.1729   -0.5663 S   0  0  0  0  0  1  0  0  0  0  0  0
   -9.8214   -0.3711   -0.9528 O   0  0  0  0  0  0  0  0  0  0  0  0
   -9.1771    1.7183   -0.9275 O   0  0  0  0  0  0  0  0  0  0  0  0
   -1.6917   -1.1790    1.5960 O   0  0  0  0  0  0  0  0  0  0  0  0
   -3.9491   -1.1183    1.2596 N   0  0  0  0  0  0  0  0  0  0  0  0
   -8.9846    0.5126   -0.7428 N   0  0  0  0  0  0  0  0  0  0  0  0
   -2.7693   -0.7694    0.8755 C   0  0  0  0  0  0  0  0  0  0  0  0
   -5.1479   -0.6873    0.7250 C   0  0  0  0  0  0  0  0  0  0  0  0
   -6.1641   -1.6478    0.4740 C   0  0  0  0  0  0  0  0  0  0  0  0
   -5.9376   -2.7054    0.6713 H   0  0  0  0  0  0  0  0  0  0  0  0
   -7.4120   -1.2626   -0.0124 C   0  0  0  0  0  0  0  0  0  0  0  0
   -8.2072   -1.9903   -0.2218 H   0  0  0  0  0  0  0  0  0  0  0  0
   -7.6671    0.1000   -0.2374 C   0  0  0  0  0  0  0  0  0  0  0  0
   -6.6902    1.0765    0.0165 C   0  0  0  0  0  0  0  0  0  0  0  0
   -6.9374    2.1303   -0.1687 H   0  0  0  0  0  0  0  0  0  0  0  0
   -5.4391    0.6850    0.4909 C   0  0  0  0  0  0  0  0  0  0  0  0
   -4.6638    1.4375    0.6921 H   0  0  0  0  0  0  0  0  0  0  0  0
   -1.9660   -1.9290    2.7836 C   0  0  0  0  0  0  0  0  0  0  0  0
   -0.9773   -2.1598    3.2222 H   0  0  0  0  0  0  0  0  0  0  0  0
   -2.5206   -2.8594    2.5458 H   0  0  0  0  0  0  0  0  0  0  0  0
   -2.5770   -1.3379    3.4955 H   0  0  0  0  0  0  0  0  0  0  0  0
  1  7  1  0  0  0  0
  2  6  2  0  0  0  0
  3  6  2  0  0  0  0
  4 18  1  0  0  0  0
  6 13  1  0  0  0  0
  7  5  2  0  0  0  0
  7  4  1  0  0  0  0
  8  5  1  0  0  0  0
  9 10  1  0  0  0  0
  9  8  2  0  0  0  0
 11  9  1  0  0  0  0
 12 11  1  0  0  0  0
 13 11  2  0  0  0  0
 13 14  1  0  0  0  0
 14 16  2  0  0  0  0
 15 14  1  0  0  0  0
 16 17  1  0  0  0  0
 16  8  1  0  0  0  0
 18 19  1  0  0  0  0
 18 21  1  0  0  0  0
 20 18  1  0  0  0  0
M  END
