1
 OpenBabel05122313063D

 20 21  0  0  0  0  0  0  0  0999 V2000
   -0.3295    1.4566    2.1362 S   0  0  0  0  0  1  0  0  0  0  0  0
   -0.2895    1.0156   -0.7307 S   0  0  0  0  0  0  0  0  0  0  0  0
   -0.7358    2.0278    0.5660 C   0  0  0  0  0  0  0  0  0  0  0  0
   -1.3985    3.3353    0.4097 C   0  0  0  0  0  0  0  0  0  0  0  0
   -0.8745    4.4186    1.1260 C   0  0  0  0  0  0  0  0  0  0  0  0
   -1.4244    5.7154    1.0091 C   0  0  0  0  0  0  0  0  0  0  0  0
   -2.5198    5.9326    0.1879 C   0  0  0  0  0  0  0  0  0  0  0  0
   -3.1161    4.8584   -0.5340 C   0  0  0  0  0  0  0  0  0  0  0  0
   -4.2704    5.0713   -1.3449 C   0  0  0  0  0  0  0  0  0  0  0  0
   -4.8745    4.0219   -2.0185 C   0  0  0  0  0  0  0  0  0  0  0  0
   -4.3461    2.7104   -1.8973 C   0  0  0  0  0  0  0  0  0  0  0  0
   -3.2177    2.4710   -1.1252 C   0  0  0  0  0  0  0  0  0  0  0  0
   -2.5586    3.5285   -0.4321 C   0  0  0  0  0  0  0  0  0  0  0  0
    0.0036    4.2482    1.7666 H   0  0  0  0  0  0  0  0  0  0  0  0
   -0.9716    6.5483    1.5672 H   0  0  0  0  0  0  0  0  0  0  0  0
   -2.9525    6.9400    0.0862 H   0  0  0  0  0  0  0  0  0  0  0  0
   -4.6784    6.0915   -1.4165 H   0  0  0  0  0  0  0  0  0  0  0  0
   -5.7656    4.2009   -2.6388 H   0  0  0  0  0  0  0  0  0  0  0  0
   -4.8318    1.8711   -2.4178 H   0  0  0  0  0  0  0  0  0  0  0  0
   -2.8198    1.4507   -1.0495 H   0  0  0  0  0  0  0  0  0  0  0  0
  2  3  2  0  0  0  0
  3  1  1  0  0  0  0
  4  3  1  0  0  0  0
  4  5  1  0  0  0  0
  5 14  1  0  0  0  0
  6  5  2  0  0  0  0
  6 15  1  0  0  0  0
  7  6  1  0  0  0  0
  8 13  1  0  0  0  0
  8  7  2  0  0  0  0
  9  8  1  0  0  0  0
 10 11  1  0  0  0  0
 10  9  2  0  0  0  0
 11 12  2  0  0  0  0
 12 20  1  0  0  0  0
 12 13  1  0  0  0  0
 13  4  2  0  0  0  0
 16  7  1  0  0  0  0
 17  9  1  0  0  0  0
 18 10  1  0  0  0  0
 19 11  1  0  0  0  0
M  END
