1
 OpenBabel05122313063D

 32 34  0  0  0  0  0  0  0  0999 V2000
    1.4509    0.5286    1.1645 S   0  0  0  0  0  1  0  0  0  0  0  0
    2.3517    1.7154    0.1533 C   0  0  0  0  0  0  0  0  0  0  0  0
    1.8390    3.0363    0.0256 C   0  0  0  0  0  0  0  0  0  0  0  0
    2.5251    3.9523   -0.8012 C   0  0  0  0  0  0  0  0  0  0  0  0
    3.6860    3.5842   -1.4887 C   0  0  0  0  0  0  0  0  0  0  0  0
    4.2032    2.2946   -1.3260 C   0  0  0  0  0  0  0  0  0  0  0  0
    3.5667    1.3525   -0.4913 C   0  0  0  0  0  0  0  0  0  0  0  0
    4.2287    0.0305   -0.3075 C   0  0  0  0  0  0  0  0  0  0  0  0
    4.6216   -0.7328   -1.4281 C   0  0  0  0  0  0  0  0  0  0  0  0
    5.3218   -1.9389   -1.2680 C   0  0  0  0  0  0  0  0  0  0  0  0
    5.6468   -2.4021    0.0172 C   0  0  0  0  0  0  0  0  0  0  0  0
    5.2615   -1.6499    1.1412 C   0  0  0  0  0  0  0  0  0  0  0  0
    4.5579   -0.4479    0.9806 C   0  0  0  0  0  0  0  0  0  0  0  0
    0.6355    3.5201    0.7615 C   0  0  0  0  0  0  0  0  0  0  0  0
    0.7448    4.6922    1.5433 C   0  0  0  0  0  0  0  0  0  0  0  0
   -0.3595    5.2021    2.2405 C   0  0  0  0  0  0  0  0  0  0  0  0
   -1.5987    4.5487    2.1647 C   0  0  0  0  0  0  0  0  0  0  0  0
   -1.7219    3.3883    1.3842 C   0  0  0  0  0  0  0  0  0  0  0  0
   -0.6191    2.8747    0.6857 C   0  0  0  0  0  0  0  0  0  0  0  0
    2.1130    4.9666   -0.9127 H   0  0  0  0  0  0  0  0  0  0  0  0
    4.1963    4.3072   -2.1422 H   0  0  0  0  0  0  0  0  0  0  0  0
    5.1387    2.0051   -1.8278 H   0  0  0  0  0  0  0  0  0  0  0  0
    4.3514   -0.3796   -2.4344 H   0  0  0  0  0  0  0  0  0  0  0  0
    5.6150   -2.5208   -2.1553 H   0  0  0  0  0  0  0  0  0  0  0  0
    6.2010   -3.3445    0.1443 H   0  0  0  0  0  0  0  0  0  0  0  0
    5.5235   -1.9975    2.1526 H   0  0  0  0  0  0  0  0  0  0  0  0
    4.2703    0.1448    1.8614 H   0  0  0  0  0  0  0  0  0  0  0  0
    1.7212    5.1953    1.6175 H   0  0  0  0  0  0  0  0  0  0  0  0
   -0.2482    6.1110    2.8516 H   0  0  0  0  0  0  0  0  0  0  0  0
   -2.4685    4.9419    2.7127 H   0  0  0  0  0  0  0  0  0  0  0  0
   -2.6940    2.8765    1.3198 H   0  0  0  0  0  0  0  0  0  0  0  0
   -0.7348    1.9705    0.0687 H   0  0  0  0  0  0  0  0  0  0  0  0
  2  1  1  0  0  0  0
  3  2  1  0  0  0  0
  3 14  1  0  0  0  0
  4  3  2  0  0  0  0
  5  6  2  0  0  0  0
  5  4  1  0  0  0  0
  6  7  1  0  0  0  0
  7  8  1  0  0  0  0
  7  2  2  0  0  0  0
  8 13  1  0  0  0  0
  9 10  1  0  0  0  0
  9  8  2  0  0  0  0
 10 11  2  0  0  0  0
 11 25  1  0  0  0  0
 11 12  1  0  0  0  0
 12 26  1  0  0  0  0
 13 12  2  0  0  0  0
 13 27  1  0  0  0  0
 14 15  1  0  0  0  0
 15 28  1  0  0  0  0
 15 16  2  0  0  0  0
 16 29  1  0  0  0  0
 17 16  1  0  0  0  0
 17 30  1  0  0  0  0
 18 17  2  0  0  0  0
 19 14  2  0  0  0  0
 19 18  1  0  0  0  0
 20  4  1  0  0  0  0
 21  5  1  0  0  0  0
 22  6  1  0  0  0  0
 23  9  1  0  0  0  0
 24 10  1  0  0  0  0
 31 18  1  0  0  0  0
 32 19  1  0  0  0  0
M  END
