1
 OpenBabel05122313063D

 52 54  0  0  1  0  0  0  0  0999 V2000
   -0.3851   -2.1709   -0.7667 S   0  0  0  0  0  1  0  0  0  0  0  0
   -0.1146    1.8522    1.1485 N   0  0  0  0  0  0  0  0  0  0  0  0
    1.5929    0.8349    0.0273 N   0  0  0  0  0  2  0  0  0  0  0  0
    0.7681   -0.1151    0.6178 N   0  0  0  0  0  0  0  0  0  0  0  0
    2.0356   -2.0727    0.3481 N   0  0  0  0  0  0  0  0  0  0  0  0
   -1.2567   -0.0580    2.0163 N   0  0  0  0  0  0  0  0  0  0  0  0
   -0.2702    0.5418    1.2975 C   0  0  1  0  0  3  0  0  0  0  0  0
    1.0047    1.9821    0.3630 C   0  0  0  0  0  0  0  0  0  0  0  0
    0.8661   -1.4317    0.1342 C   0  0  2  0  0  3  0  0  0  0  0  0
    1.5277    3.2898   -0.0581 C   0  0  0  0  0  0  0  0  0  0  0  0
    2.7089    3.3882   -0.8251 C   0  0  0  0  0  0  0  0  0  0  0  0
    3.2389    2.4679   -1.1102 H   0  0  0  0  0  0  0  0  0  0  0  0
    3.1894    4.6426   -1.2186 C   0  0  0  0  0  0  0  0  0  0  0  0
    4.1098    4.7120   -1.8183 H   0  0  0  0  0  0  0  0  0  0  0  0
    2.4984    5.8113   -0.8537 C   0  0  0  0  0  0  0  0  0  0  0  0
    2.8777    6.7963   -1.1660 H   0  0  0  0  0  0  0  0  0  0  0  0
    1.3218    5.7179   -0.0930 C   0  0  0  0  0  0  0  0  0  0  0  0
    0.7754    6.6300    0.1910 H   0  0  0  0  0  0  0  0  0  0  0  0
    0.8369    4.4651    0.3048 C   0  0  0  0  0  0  0  0  0  0  0  0
   -0.0844    4.3702    0.8971 H   0  0  0  0  0  0  0  0  0  0  0  0
    3.0633   -1.5309    1.2523 C   0  0  0  0  0  0  0  0  0  0  0  0
    3.3910   -2.3579    1.9173 H   0  0  0  0  0  0  0  0  0  0  0  0
    2.5660   -0.7764    1.8863 H   0  0  0  0  0  0  0  0  0  0  0  0
    4.2621   -0.8976    0.5303 C   0  0  0  0  0  0  0  0  0  0  0  0
    3.8546   -0.2387   -0.2630 H   0  0  0  0  0  0  0  0  0  0  0  0
    4.7639   -0.2248    1.2570 H   0  0  0  0  0  0  0  0  0  0  0  0
    5.2847   -1.8919   -0.0237 C   0  0  0  0  0  0  0  0  0  0  0  0
    5.7798   -2.4174    0.8246 H   0  0  0  0  0  0  0  0  0  0  0  0
    6.0893   -1.3253   -0.5375 H   0  0  0  0  0  0  0  0  0  0  0  0
    4.7177   -2.9478   -0.9805 C   0  0  0  0  0  0  0  0  0  0  0  0
    4.2655   -2.4555   -1.8702 H   0  0  0  0  0  0  0  0  0  0  0  0
    5.5590   -3.5599   -1.3660 H   0  0  0  0  0  0  0  0  0  0  0  0
    3.6839   -3.8856   -0.3348 C   0  0  0  0  0  0  0  0  0  0  0  0
    4.0203   -4.1758    0.6842 H   0  0  0  0  0  0  0  0  0  0  0  0
    3.6353   -4.8363   -0.9051 H   0  0  0  0  0  0  0  0  0  0  0  0
    2.2464   -3.3724   -0.3108 C   0  0  0  0  0  0  0  0  0  0  0  0
    1.8695   -3.2629   -1.3515 H   0  0  0  0  0  0  0  0  0  0  0  0
    1.5740   -4.1204    0.1675 H   0  0  0  0  0  0  0  0  0  0  0  0
   -1.0738   -1.3415    2.6965 C   0  0  0  0  0  0  0  0  0  0  0  0
   -1.0180   -1.1526    3.7948 H   0  0  0  0  0  0  0  0  0  0  0  0
   -0.0827   -1.7473    2.4131 H   0  0  0  0  0  0  0  0  0  0  0  0
   -2.1621   -2.3722    2.4066 C   0  0  0  0  0  0  0  0  0  0  0  0
   -3.1622   -2.0057    2.7110 H   0  0  0  0  0  0  0  0  0  0  0  0
   -1.9612   -3.3013    2.9765 H   0  0  0  0  0  0  0  0  0  0  0  0
   -2.2036   -2.6163    1.3281 H   0  0  0  0  0  0  0  0  0  0  0  0
   -2.3602    0.8052    2.4634 C   0  0  0  0  0  0  0  0  0  0  0  0
   -3.2399    0.1485    2.6156 H   0  0  0  0  0  0  0  0  0  0  0  0
   -2.6150    1.4723    1.6170 H   0  0  0  0  0  0  0  0  0  0  0  0
   -2.0493    1.6100    3.7249 C   0  0  0  0  0  0  0  0  0  0  0  0
   -1.7915    0.9565    4.5841 H   0  0  0  0  0  0  0  0  0  0  0  0
   -2.9336    2.2104    4.0182 H   0  0  0  0  0  0  0  0  0  0  0  0
   -1.2062    2.3029    3.5385 H   0  0  0  0  0  0  0  0  0  0  0  0
  2  7  1  0  0  0  0
  3  8  1  0  0  0  0
  3  4  1  0  0  0  0
  4  7  1  0  0  0  0
  5 21  1  0  0  0  0
  6 46  1  0  0  0  0
  6 39  1  0  0  0  0
  7  6  1  1  0  0  0
  8  2  2  0  0  0  0
  9  1  1  6  0  0  0
  9  5  1  0  0  0  0
  9  4  1  0  0  0  0
 10 19  1  0  0  0  0
 10  8  1  0  0  0  0
 11 10  2  0  0  0  0
 12 11  1  0  0  0  0
 13 15  2  0  0  0  0
 13 11  1  0  0  0  0
 14 13  1  0  0  0  0
 15 17  1  0  0  0  0
 16 15  1  0  0  0  0
 17 18  1  0  0  0  0
 17 19  2  0  0  0  0
 19 20  1  0  0  0  0
 21 23  1  0  0  0  0
 21 22  1  0  0  0  0
 24 21  1  0  0  0  0
 24 26  1  0  0  0  0
 25 24  1  0  0  0  0
 27 24  1  0  0  0  0
 27 28  1  0  0  0  0
 29 27  1  0  0  0  0
 30 33  1  0  0  0  0
 30 27  1  0  0  0  0
 31 30  1  0  0  0  0
 32 30  1  0  0  0  0
 33 36  1  0  0  0  0
 33 34  1  0  0  0  0
 35 33  1  0  0  0  0
 36 38  1  0  0  0  0
 36  5  1  0  0  0  0
 37 36  1  0  0  0  0
 39 40  1  0  0  0  0
 41 39  1  0  0  0  0
 42 39  1  0  0  0  0
 42 43  1  0  0  0  0
 42 44  1  0  0  0  0
 45 42  1  0  0  0  0
 46 47  1  0  0  0  0
 46 49  1  0  0  0  0
 48 46  1  0  0  0  0
 49 51  1  0  0  0  0
 49 50  1  0  0  0  0
 52 49  1  0  0  0  0
M  END
