1
 OpenBabel05122313063D

 18 19  0  0  0  0  0  0  0  0999 V2000
   -0.0145    1.1594   -2.1709 S   0  0  0  0  0  1  0  0  0  0  0  0
   -1.6415    1.2792   -1.4740 C   0  0  0  0  0  0  0  0  0  0  0  0
   -2.5327    0.2033   -1.4313 C   0  0  0  0  0  0  0  0  0  0  0  0
   -2.2403   -0.7525   -1.8904 H   0  0  0  0  0  0  0  0  0  0  0  0
   -3.7893    0.3000   -0.7717 C   0  0  0  0  0  0  0  0  0  0  0  0
   -4.1662    1.5453   -0.1441 C   0  0  0  0  0  0  0  0  0  0  0  0
   -3.2658    2.6485   -0.2423 C   0  0  0  0  0  0  0  0  0  0  0  0
   -3.5484    3.6053    0.2263 H   0  0  0  0  0  0  0  0  0  0  0  0
   -2.0488    2.5231   -0.8875 C   0  0  0  0  0  0  0  0  0  0  0  0
   -1.3485    3.3701   -0.9396 H   0  0  0  0  0  0  0  0  0  0  0  0
   -4.6812   -0.8109   -0.6729 C   0  0  0  0  0  0  0  0  0  0  0  0
   -4.3856   -1.7622   -1.1416 H   0  0  0  0  0  0  0  0  0  0  0  0
   -5.8828   -0.7050    0.0139 C   0  0  0  0  0  0  0  0  0  0  0  0
   -6.5550   -1.5748    0.0832 H   0  0  0  0  0  0  0  0  0  0  0  0
   -6.2508    0.5206    0.6331 C   0  0  0  0  0  0  0  0  0  0  0  0
   -7.2056    0.5950    1.1767 H   0  0  0  0  0  0  0  0  0  0  0  0
   -5.4062    1.6212    0.5511 C   0  0  0  0  0  0  0  0  0  0  0  0
   -5.6842    2.5748    1.0290 H   0  0  0  0  0  0  0  0  0  0  0  0
  1  2  1  0  0  0  0
  2  3  2  0  0  0  0
  2  9  1  0  0  0  0
  3  5  1  0  0  0  0
  4  3  1  0  0  0  0
  5 11  2  0  0  0  0
  5  6  1  0  0  0  0
  6 17  2  0  0  0  0
  7  6  1  0  0  0  0
  7  8  1  0  0  0  0
  9  7  2  0  0  0  0
 10  9  1  0  0  0  0
 11 13  1  0  0  0  0
 12 11  1  0  0  0  0
 13 14  1  0  0  0  0
 13 15  2  0  0  0  0
 15 16  1  0  0  0  0
 17 15  1  0  0  0  0
 17 18  1  0  0  0  0
M  END
