1
 OpenBabel05122313063D

 12 12  0  0  0  0  0  0  0  0999 V2000
    2.8673   -1.8915   -0.0704 S   0  0  0  0  0  1  0  0  0  0  0  0
    2.4584    1.1232    0.1431 O   0  5  0  0  0  0  0  0  0  0  0  0
    3.6860    0.7430    0.0788 N   0  3  0  0  0  0  0  0  0  0  0  0
    4.0454   -0.6119   -0.0215 C   0  0  0  0  0  0  0  0  0  0  0  0
    5.4233   -0.9254   -0.0796 C   0  0  0  0  0  0  0  0  0  0  0  0
    5.6821   -1.9908   -0.1582 H   0  0  0  0  0  0  0  0  0  0  0  0
    4.6714    1.7074    0.1139 C   0  0  0  0  0  0  0  0  0  0  0  0
    4.2641    2.7232    0.1944 H   0  0  0  0  0  0  0  0  0  0  0  0
    6.0220    1.4012    0.0564 C   0  0  0  0  0  0  0  0  0  0  0  0
    6.7539    2.2203    0.0899 H   0  0  0  0  0  0  0  0  0  0  0  0
    6.4146    0.0529   -0.0423 C   0  0  0  0  0  0  0  0  0  0  0  0
    7.4764   -0.2277   -0.0899 H   0  0  0  0  0  0  0  0  0  0  0  0
  1  4  1  0  0  0  0
  3  7  1  0  0  0  0
  3  2  1  0  0  0  0
  4  3  2  0  0  0  0
  5 11  2  0  0  0  0
  5  4  1  0  0  0  0
  6  5  1  0  0  0  0
  7  8  1  0  0  0  0
  9 10  1  0  0  0  0
  9  7  2  0  0  0  0
 11  9  1  0  0  0  0
 12 11  1  0  0  0  0
M  CHG  2   2  -1   3   1
M  END
