1
 OpenBabel05122313063D

 12 12  0  0  0  0  0  0  0  0999 V2000
    0.3226   -1.9875    1.5788 S   0  0  0  0  0  1  0  0  0  0  0  0
   -0.0404   -2.5356   -1.2680 S   0  0  0  0  0  0  0  0  0  0  0  0
    0.2171   -3.1279    0.3017 C   0  0  0  0  0  0  0  0  0  0  0  0
    0.3383   -4.4882    0.5670 N   0  0  0  0  0  0  0  0  0  0  0  0
    0.5390   -5.0600    1.8291 C   0  0  0  0  0  0  0  0  0  0  0  0
    0.6116   -4.4223    2.7153 H   0  0  0  0  0  0  0  0  0  0  0  0
    0.6059   -6.4260    1.6691 C   0  0  0  0  0  0  0  0  0  0  0  0
    0.7567   -7.1552    2.4731 H   0  0  0  0  0  0  0  0  0  0  0  0
    0.4413   -6.7100    0.2647 C   0  0  0  0  0  0  0  0  0  0  0  0
    0.4432   -7.6980   -0.2093 H   0  0  0  0  0  0  0  0  0  0  0  0
    0.2791   -5.5089   -0.3889 C   0  0  0  0  0  0  0  0  0  0  0  0
    0.1263   -5.2593   -1.4431 H   0  0  0  0  0  0  0  0  0  0  0  0
  2  3  2  0  0  0  0
  3  4  1  0  0  0  0
  3  1  1  0  0  0  0
  4  5  1  0  0  0  0
  5  6  1  0  0  0  0
  7  5  2  0  0  0  0
  7  8  1  0  0  0  0
  9  7  1  0  0  0  0
 10  9  1  0  0  0  0
 11  9  2  0  0  0  0
 11  4  1  0  0  0  0
 12 11  1  0  0  0  0
M  END
