2
 OpenBabel05122313063D

 53 55  0  0  1  0  0  0  0  0999 V2000
   -3.4924   -0.1265   -0.2228 P   0  0  0  0  0  4  0  0  0  0  0  0
   -0.7940   -0.4489    0.9919 S   0  0  0  0  0  1  0  0  0  0  0  0
   -1.4406   -1.6717   -1.7387 S   0  0  0  0  0  0  0  0  0  0  0  0
   -1.7984   -0.8604   -0.3258 C   0  0  0  0  0  0  0  0  0  0  0  0
   -3.4394    1.5137   -1.0937 C   0  0  0  0  0  0  0  0  0  0  0  0
   -3.1097    1.3832   -2.5931 C   0  0  0  0  0  0  0  0  0  0  0  0
   -3.1041    2.7615   -3.2711 C   0  0  0  0  0  0  0  0  0  0  0  0
   -2.1368    3.7251   -2.5773 C   0  0  0  0  0  0  0  0  0  0  0  0
   -2.4696    3.8604   -1.0880 C   0  0  0  0  0  0  0  0  0  0  0  0
   -2.4790    2.4932   -0.3879 C   0  0  0  0  0  0  0  0  0  0  0  0
   -4.6587   -1.2465   -1.1069 C   0  0  1  0  0  0  0  0  0  0  0  0
   -4.5403   -2.7481   -0.6929 C   0  0  0  0  0  0  0  0  0  0  0  0
   -5.6051   -3.7135   -1.0249 C   0  0  0  0  0  2  0  0  0  0  0  0
   -6.8495   -3.1329   -1.5527 C   0  0  0  0  0  0  0  0  0  0  0  0
   -6.9513   -1.6669   -2.0096 C   0  0  0  0  0  0  0  0  0  0  0  0
   -6.1178   -0.7593   -1.0971 C   0  0  0  0  0  0  0  0  0  0  0  0
   -3.9539    0.1972    1.5408 C   0  0  0  0  0  0  0  0  0  0  0  0
   -5.1228    1.1822    1.7424 C   0  0  0  0  0  0  0  0  0  0  0  0
   -5.2903    1.5015    3.2365 C   0  0  0  0  0  0  0  0  0  0  0  0
   -5.4726    0.2307    4.0749 C   0  0  0  0  0  0  0  0  0  0  0  0
   -4.3238   -0.7585    3.8474 C   0  0  0  0  0  0  0  0  0  0  0  0
   -4.1557   -1.0934    2.3588 C   0  0  0  0  0  0  0  0  0  0  0  0
   -4.4834    1.8935   -0.9929 H   0  0  0  0  0  0  0  0  0  0  0  0
   -3.8372    0.7144   -3.0979 H   0  0  0  0  0  0  0  0  0  0  0  0
   -2.1119    0.9095   -2.7030 H   0  0  0  0  0  0  0  0  0  0  0  0
   -4.1336    3.1863   -3.2518 H   0  0  0  0  0  0  0  0  0  0  0  0
   -2.8362    2.6377   -4.3405 H   0  0  0  0  0  0  0  0  0  0  0  0
   -1.0979    3.3463   -2.6760 H   0  0  0  0  0  0  0  0  0  0  0  0
   -2.1606    4.7193   -3.0690 H   0  0  0  0  0  0  0  0  0  0  0  0
   -3.4644    4.3466   -0.9667 H   0  0  0  0  0  0  0  0  0  0  0  0
   -1.7289    4.5165   -0.5880 H   0  0  0  0  0  0  0  0  0  0  0  0
   -1.4591    2.0634   -0.4162 H   0  0  0  0  0  0  0  0  0  0  0  0
   -2.7480    2.6151    0.6811 H   0  0  0  0  0  0  0  0  0  0  0  0
   -4.2706   -1.1822   -2.1471 H   0  0  0  0  0  0  0  0  0  0  0  0
   -4.3585   -2.9000    0.3972 H   0  0  0  0  0  0  0  0  0  0  0  0
   -3.5900   -3.1680   -1.1089 H   0  0  0  0  0  0  0  0  0  0  0  0
   -7.3925   -3.8441   -2.2141 H   0  0  0  0  0  0  0  0  0  0  0  0
   -7.4081   -3.2795   -0.5781 H   0  0  0  0  0  0  0  0  0  0  0  0
   -6.5831   -1.5801   -3.0548 H   0  0  0  0  0  0  0  0  0  0  0  0
   -8.0104   -1.3354   -2.0244 H   0  0  0  0  0  0  0  0  0  0  0  0
   -6.1921    0.2977   -1.4252 H   0  0  0  0  0  0  0  0  0  0  0  0
   -6.5270   -0.8014   -0.0636 H   0  0  0  0  0  0  0  0  0  0  0  0
   -3.0229    0.6810    1.9171 H   0  0  0  0  0  0  0  0  0  0  0  0
   -4.9557    2.1201    1.1757 H   0  0  0  0  0  0  0  0  0  0  0  0
   -6.0633    0.7368    1.3542 H   0  0  0  0  0  0  0  0  0  0  0  0
   -6.1495    2.1898    3.3747 H   0  0  0  0  0  0  0  0  0  0  0  0
   -4.3888    2.0504    3.5890 H   0  0  0  0  0  0  0  0  0  0  0  0
   -6.4352   -0.2555    3.7974 H   0  0  0  0  0  0  0  0  0  0  0  0
   -5.5540    0.4886    5.1508 H   0  0  0  0  0  0  0  0  0  0  0  0
   -3.3729   -0.3219    4.2251 H   0  0  0  0  0  0  0  0  0  0  0  0
   -4.4898   -1.6924    4.4226 H   0  0  0  0  0  0  0  0  0  0  0  0
   -3.2939   -1.7766    2.2142 H   0  0  0  0  0  0  0  0  0  0  0  0
   -5.0664   -1.6213    2.0002 H   0  0  0  0  0  0  0  0  0  0  0  0
  1 17  1  0  0  0  0
  3  4  2  0  0  0  0
  4  1  1  0  0  0  0
  4  2  1  0  0  0  0
  5 23  1  0  0  0  0
  5 10  1  0  0  0  0
  5  1  1  0  0  0  0
  6  5  1  0  0  0  0
  7 26  1  0  0  0  0
  7  6  1  0  0  0  0
  7  8  1  0  0  0  0
  8  9  1  0  0  0  0
  9 30  1  0  0  0  0
  9 31  1  0  0  0  0
  9 10  1  0  0  0  0
 10 33  1  0  0  0  0
 11 34  1  6  0  0  0
 11 16  1  0  0  0  0
 11 12  1  0  0  0  0
 11  1  1  0  0  0  0
 12 35  1  0  0  0  0
 13 12  1  0  0  0  0
 14 13  1  0  0  0  0
 14 38  1  0  0  0  0
 15 14  1  0  0  0  0
 15 16  1  0  0  0  0
 16 42  1  0  0  0  0
 17 18  1  0  0  0  0
 17 43  1  0  0  0  0
 17 22  1  0  0  0  0
 18 19  1  0  0  0  0
 19 46  1  0  0  0  0
 19 47  1  0  0  0  0
 19 20  1  0  0  0  0
 20 49  1  0  0  0  0
 21 20  1  0  0  0  0
 21 50  1  0  0  0  0
 21 51  1  0  0  0  0
 22 21  1  0  0  0  0
 24  6  1  0  0  0  0
 25  6  1  0  0  0  0
 27  7  1  0  0  0  0
 28  8  1  0  0  0  0
 29  8  1  0  0  0  0
 32 10  1  0  0  0  0
 36 12  1  0  0  0  0
 37 14  1  0  0  0  0
 39 15  1  0  0  0  0
 40 15  1  0  0  0  0
 41 16  1  0  0  0  0
 44 18  1  0  0  0  0
 45 18  1  0  0  0  0
 48 20  1  0  0  0  0
 52 22  1  0  0  0  0
 53 22  1  0  0  0  0
M  END
