1
 OpenBabel05122313063D

 23 23  0  0  1  0  0  0  0  0999 V2000
   -0.9886   -0.5310   -1.4850 S   0  0  0  0  0  1  0  0  0  0  0  0
   -3.0480    1.8303   -1.5941 O   0  0  0  0  0  0  0  0  0  0  0  0
   -3.8731    2.2924   -1.8483 H   0  0  0  0  0  0  0  0  0  0  0  0
   -5.6653    1.4461   -0.6931 O   0  0  0  0  0  0  0  0  0  0  0  0
   -6.4026    1.4919   -0.0516 H   0  0  0  0  0  0  0  0  0  0  0  0
   -5.9702   -0.0567    1.6804 O   0  0  0  0  0  0  0  0  0  0  0  0
   -6.5324   -0.8393    1.8226 H   0  0  0  0  0  0  0  0  0  0  0  0
   -2.6861   -1.2061    0.4165 O   0  0  0  0  0  0  0  0  0  0  0  0
   -4.3985   -3.2935    1.0833 O   0  0  0  0  0  0  0  0  0  0  0  0
   -3.7463   -3.2550    0.3554 H   0  0  0  0  0  0  0  0  0  0  0  0
   -2.2823   -0.0394   -0.2804 C   0  0  2  0  0  0  0  0  0  0  0  0
   -1.8508    0.7037    0.4335 H   0  0  0  0  0  0  0  0  0  0  0  0
   -3.4690    0.6143   -1.0005 C   0  0  1  0  0  0  0  0  0  0  0  0
   -3.8525   -0.1004   -1.7686 H   0  0  0  0  0  0  0  0  0  0  0  0
   -4.5815    0.8763    0.0102 C   0  0  2  0  0  0  0  0  0  0  0  0
   -4.1826    1.5945    0.7743 H   0  0  0  0  0  0  0  0  0  0  0  0
   -4.9594   -0.4044    0.7419 C   0  0  1  0  0  0  0  0  0  0  0  0
   -5.3301   -1.1515    0.0049 H   0  0  0  0  0  0  0  0  0  0  0  0
   -3.7041   -0.9910    1.4128 C   0  0  1  0  0  0  0  0  0  0  0  0
   -3.3440   -0.2737    2.1909 H   0  0  0  0  0  0  0  0  0  0  0  0
   -3.9455   -2.3605    2.0398 C   0  0  0  0  0  0  0  0  0  0  0  0
   -3.0058   -2.6881    2.5475 H   0  0  0  0  0  0  0  0  0  0  0  0
   -4.7268   -2.2648    2.8222 H   0  0  0  0  0  0  0  0  0  0  0  0
  1 11  1  0  0  0  0
  2 13  1  0  0  0  0
  3  2  1  0  0  0  0
  4  5  1  0  0  0  0
  4 15  1  0  0  0  0
  6  7  1  0  0  0  0
  8 19  1  0  0  0  0
  9 21  1  0  0  0  0
 10  9  1  0  0  0  0
 11  8  1  0  0  0  0
 11 12  1  1  0  0  0
 13 14  1  6  0  0  0
 13 11  1  0  0  0  0
 13 15  1  0  0  0  0
 15 17  1  0  0  0  0
 15 16  1  1  0  0  0
 17 18  1  6  0  0  0
 17 19  1  0  0  0  0
 17  6  1  0  0  0  0
 19 21  1  0  0  0  0
 19 20  1  1  0  0  0
 21 22  1  0  0  0  0
 21 23  1  0  0  0  0
M  END
