1
 OpenBabel05122313063D

 26 28  0  0  1  0  0  0  0  0999 V2000
   -0.4369   -1.8190    0.0001 S   0  0  0  0  0  1  0  0  0  0  0  0
    0.7225   -0.6322   -0.0002 C   0  0  2  0  0  3  0  0  0  0  0  0
    2.1021   -0.3162   -0.0002 C   0  0  0  0  0  0  0  0  0  0  0  0
    1.1830    0.7104   -0.0002 C   0  0  0  0  0  0  0  0  0  0  0  0
    3.4402   -0.8378   -0.0001 C   0  0  0  0  0  0  0  0  0  0  0  0
    4.5743    0.0113   -0.0017 C   0  0  0  0  0  0  0  0  0  0  0  0
    5.8591   -0.5390   -0.0016 C   0  0  0  0  0  0  0  0  0  0  0  0
    6.0274   -1.9357    0.0001 C   0  0  0  0  0  0  0  0  0  0  0  0
    4.9079   -2.7858    0.0017 C   0  0  0  0  0  0  0  0  0  0  0  0
    3.6185   -2.2446    0.0015 C   0  0  0  0  0  0  0  0  0  0  0  0
    0.8779    2.1144   -0.0000 C   0  0  0  0  0  0  0  0  0  0  0  0
    1.9162    3.0800    0.0004 C   0  0  0  0  0  0  0  0  0  0  0  0
    1.6043    4.4419    0.0006 C   0  0  0  0  0  0  0  0  0  0  0  0
    0.2589    4.8543    0.0003 C   0  0  0  0  0  0  0  0  0  0  0  0
   -0.7752    3.9027   -0.0001 C   0  0  0  0  0  0  0  0  0  0  0  0
   -0.4751    2.5372   -0.0003 C   0  0  0  0  0  0  0  0  0  0  0  0
    4.4358    1.1021   -0.0031 H   0  0  0  0  0  0  0  0  0  0  0  0
    6.7388    0.1215   -0.0029 H   0  0  0  0  0  0  0  0  0  0  0  0
    7.0410   -2.3643    0.0002 H   0  0  0  0  0  0  0  0  0  0  0  0
    5.0443   -3.8773    0.0030 H   0  0  0  0  0  0  0  0  0  0  0  0
    2.7312   -2.8952    0.0026 H   0  0  0  0  0  0  0  0  0  0  0  0
    2.9654    2.7504    0.0007 H   0  0  0  0  0  0  0  0  0  0  0  0
    2.4105    5.1903    0.0010 H   0  0  0  0  0  0  0  0  0  0  0  0
    0.0170    5.9281    0.0005 H   0  0  0  0  0  0  0  0  0  0  0  0
   -1.8261    4.2280   -0.0003 H   0  0  0  0  0  0  0  0  0  0  0  0
   -1.2696    1.7736   -0.0006 H   0  0  0  0  0  0  0  0  0  0  0  0
  2  1  1  1  0  0  0
  3  4  2  0  0  0  0
  3  2  1  0  0  0  0
  3  5  1  0  0  0  0
  4  2  1  0  0  0  0
  4 11  1  0  0  0  0
  5 10  1  0  0  0  0
  6  7  1  0  0  0  0
  6  5  2  0  0  0  0
  7  8  2  0  0  0  0
  8 19  1  0  0  0  0
  8  9  1  0  0  0  0
  9 20  1  0  0  0  0
 10  9  2  0  0  0  0
 10 21  1  0  0  0  0
 11 12  1  0  0  0  0
 12 13  2  0  0  0  0
 12 22  1  0  0  0  0
 13 23  1  0  0  0  0
 14 24  1  0  0  0  0
 14 13  1  0  0  0  0
 15 14  2  0  0  0  0
 16 15  1  0  0  0  0
 16 11  2  0  0  0  0
 17  6  1  0  0  0  0
 18  7  1  0  0  0  0
 25 15  1  0  0  0  0
 26 16  1  0  0  0  0
M  END
