2
 OpenBabel05122313063D

 47 51  0  0  0  0  0  0  0  0999 V2000
    0.1154   -0.0334    0.1354 P   0  0  0  0  0  4  0  0  0  0  0  0
   -0.7911   -0.5846   -1.6149 S   0  0  0  0  0  1  0  0  0  0  0  0
    1.9237    0.0436   -0.1312 C   0  0  0  0  0  0  0  0  0  0  0  0
   -0.4170    1.6249    0.6852 C   0  0  0  0  0  0  0  0  0  0  0  0
   -0.1505   -1.1546    1.5586 C   0  0  0  0  0  0  0  0  0  0  0  0
    3.9678    1.4080   -0.1597 C   0  0  0  0  0  0  0  0  0  0  0  0
    2.0565   -2.4029   -0.7068 C   0  0  0  0  0  0  0  0  0  0  0  0
    0.9675   -2.4943   -0.5882 H   0  0  0  0  0  0  0  0  0  0  0  0
    2.6766   -1.1366   -0.5219 C   0  0  0  0  0  0  0  0  0  0  0  0
    4.7561    0.2705   -0.5352 C   0  0  0  0  0  0  0  0  0  0  0  0
    0.9143   -1.4183    2.4460 C   0  0  0  0  0  0  0  0  0  0  0  0
    1.9108   -0.9907    2.2596 H   0  0  0  0  0  0  0  0  0  0  0  0
   -0.4199    1.9551    2.0545 C   0  0  0  0  0  0  0  0  0  0  0  0
   -0.1331    1.2056    2.8070 H   0  0  0  0  0  0  0  0  0  0  0  0
    4.0984   -1.0207   -0.7130 C   0  0  0  0  0  0  0  0  0  0  0  0
    4.8233   -2.1870   -1.0751 C   0  0  0  0  0  0  0  0  0  0  0  0
    5.9093   -2.1247   -1.2265 H   0  0  0  0  0  0  0  0  0  0  0  0
   -0.8039    2.5755   -0.2803 C   0  0  0  0  0  0  0  0  0  0  0  0
   -0.8223    2.2916   -1.3436 H   0  0  0  0  0  0  0  0  0  0  0  0
    6.1508    0.4641   -0.7165 C   0  0  0  0  0  0  0  0  0  0  0  0
    6.7887   -0.3817   -1.0065 H   0  0  0  0  0  0  0  0  0  0  0  0
    2.5564    1.2577    0.0376 C   0  0  0  0  0  0  0  0  0  0  0  0
    1.9808    2.1468    0.3348 H   0  0  0  0  0  0  0  0  0  0  0  0
    4.1928   -3.4152   -1.2456 C   0  0  0  0  0  0  0  0  0  0  0  0
    4.7839   -4.2995   -1.5269 H   0  0  0  0  0  0  0  0  0  0  0  0
    4.5865    2.6752    0.0195 C   0  0  0  0  0  0  0  0  0  0  0  0
    3.9581    3.5323    0.3071 H   0  0  0  0  0  0  0  0  0  0  0  0
    2.7976   -3.5240   -1.0621 C   0  0  0  0  0  0  0  0  0  0  0  0
    2.2924   -4.4909   -1.2027 H   0  0  0  0  0  0  0  0  0  0  0  0
    6.7380    1.7140   -0.5371 C   0  0  0  0  0  0  0  0  0  0  0  0
    7.8219    1.8311   -0.6870 H   0  0  0  0  0  0  0  0  0  0  0  0
    0.6988   -2.2347    3.5660 C   0  0  0  0  0  0  0  0  0  0  0  0
    1.5311   -2.4433    4.2549 H   0  0  0  0  0  0  0  0  0  0  0  0
   -1.6286   -2.5221    2.9178 C   0  0  0  0  0  0  0  0  0  0  0  0
   -2.6254   -2.9510    3.0986 H   0  0  0  0  0  0  0  0  0  0  0  0
    5.9545    2.8313   -0.1662 C   0  0  0  0  0  0  0  0  0  0  0  0
    6.4261    3.8154   -0.0273 H   0  0  0  0  0  0  0  0  0  0  0  0
   -1.1926    4.1924    1.4937 C   0  0  0  0  0  0  0  0  0  0  0  0
   -1.5082    5.1974    1.8121 H   0  0  0  0  0  0  0  0  0  0  0  0
   -1.4237   -1.7089    1.7948 C   0  0  0  0  0  0  0  0  0  0  0  0
   -2.2533   -1.4974    1.0966 H   0  0  0  0  0  0  0  0  0  0  0  0
   -0.8098    3.2423    2.4535 C   0  0  0  0  0  0  0  0  0  0  0  0
   -0.8252    3.4991    3.5233 H   0  0  0  0  0  0  0  0  0  0  0  0
   -1.1882    3.8590    0.1290 C   0  0  0  0  0  0  0  0  0  0  0  0
   -1.5018    4.5983   -0.6228 H   0  0  0  0  0  0  0  0  0  0  0  0
   -0.5704   -2.7866    3.8025 C   0  0  0  0  0  0  0  0  0  0  0  0
   -0.7349   -3.4290    4.6809 H   0  0  0  0  0  0  0  0  0  0  0  0
  1  4  1  0  0  0  0
  1  5  1  0  0  0  0
  2  1  1  0  0  0  0
  3 22  1  0  0  0  0
  3  1  1  0  0  0  0
  4 13  1  0  0  0  0
  5 40  2  0  0  0  0
  5 11  1  0  0  0  0
  6 26  1  0  0  0  0
  6 22  2  0  0  0  0
  7  8  1  0  0  0  0
  7  9  1  0  0  0  0
  9  3  2  0  0  0  0
 10  6  1  0  0  0  0
 11 32  2  0  0  0  0
 12 11  1  0  0  0  0
 13 42  2  0  0  0  0
 13 14  1  0  0  0  0
 15 10  2  0  0  0  0
 15  9  1  0  0  0  0
 16 15  1  0  0  0  0
 17 16  1  0  0  0  0
 18 44  1  0  0  0  0
 18  4  2  0  0  0  0
 19 18  1  0  0  0  0
 20 30  2  0  0  0  0
 20 10  1  0  0  0  0
 21 20  1  0  0  0  0
 22 23  1  0  0  0  0
 24 16  2  0  0  0  0
 24 28  1  0  0  0  0
 25 24  1  0  0  0  0
 26 27  1  0  0  0  0
 28  7  2  0  0  0  0
 29 28  1  0  0  0  0
 30 36  1  0  0  0  0
 31 30  1  0  0  0  0
 32 46  1  0  0  0  0
 32 33  1  0  0  0  0
 34 35  1  0  0  0  0
 34 46  2  0  0  0  0
 36 37  1  0  0  0  0
 36 26  2  0  0  0  0
 38 39  1  0  0  0  0
 38 42  1  0  0  0  0
 40 34  1  0  0  0  0
 41 40  1  0  0  0  0
 42 43  1  0  0  0  0
 44 38  2  0  0  0  0
 45 44  1  0  0  0  0
 46 47  1  0  0  0  0
M  END
