1
 OpenBabel05122313063D

 31 32  0  0  0  0  0  0  0  0999 V2000
   -0.0353   -1.0701   -1.0934 S   0  0  0  0  0  1  0  0  0  0  0  0
    0.7329    0.0273    0.0640 C   0  0  0  0  0  0  0  0  0  0  0  0
   -0.1920    0.9845    1.1317 S   0  0  0  0  0  0  0  0  0  0  0  0
    2.0918    0.0614    0.0611 N   0  0  0  0  0  0  0  0  0  0  0  0
    2.9276   -0.6517   -0.9153 C   0  0  0  0  0  0  0  0  0  0  0  0
    3.6206    0.0872   -1.3704 H   0  0  0  0  0  0  0  0  0  0  0  0
    2.2638   -1.0234   -1.7203 H   0  0  0  0  0  0  0  0  0  0  0  0
    3.7137   -1.7855   -0.2914 C   0  0  0  0  0  0  0  0  0  0  0  0
    3.0391   -2.8701    0.3062 C   0  0  0  0  0  0  0  0  0  0  0  0
    1.9376   -2.8907    0.2959 H   0  0  0  0  0  0  0  0  0  0  0  0
    3.7631   -3.9127    0.9000 C   0  0  0  0  0  0  0  0  0  0  0  0
    3.2274   -4.7564    1.3612 H   0  0  0  0  0  0  0  0  0  0  0  0
    5.1684   -3.8858    0.9035 C   0  0  0  0  0  0  0  0  0  0  0  0
    5.7348   -4.7062    1.3698 H   0  0  0  0  0  0  0  0  0  0  0  0
    5.8466   -2.8102    0.3113 C   0  0  0  0  0  0  0  0  0  0  0  0
    6.9469   -2.7822    0.3122 H   0  0  0  0  0  0  0  0  0  0  0  0
    5.1207   -1.7635   -0.2801 C   0  0  0  0  0  0  0  0  0  0  0  0
    5.6515   -0.9149   -0.7414 H   0  0  0  0  0  0  0  0  0  0  0  0
    2.8446    0.8338    1.0557 C   0  0  0  0  0  0  0  0  0  0  0  0
    3.6039    0.1614    1.5062 H   0  0  0  0  0  0  0  0  0  0  0  0
    2.1219    1.1354    1.8418 H   0  0  0  0  0  0  0  0  0  0  0  0
    3.5095    2.0505    0.4543 C   0  0  0  0  0  0  0  0  0  0  0  0
    2.7479    3.0382   -0.2007 C   0  0  0  0  0  0  0  0  0  0  0  0
    1.6527    2.9406   -0.2658 H   0  0  0  0  0  0  0  0  0  0  0  0
    3.4101    4.1463   -0.7489 C   0  0  0  0  0  0  0  0  0  0  0  0
    2.8304    4.9339   -1.2632 H   0  0  0  0  0  0  0  0  0  0  0  0
    4.7411    4.3294   -0.6912 N   0  0  0  0  0  0  0  0  0  0  0  0
    5.4612    3.3865   -0.0657 C   0  0  0  0  0  0  0  0  0  0  0  0
    6.5541    3.5475   -0.0266 H   0  0  0  0  0  0  0  0  0  0  0  0
    4.9012    2.2366    0.5166 C   0  0  0  0  0  0  0  0  0  0  0  0
    5.5436    1.4913    1.0124 H   0  0  0  0  0  0  0  0  0  0  0  0
  1  2  1  0  0  0  0
  2  3  2  0  0  0  0
  4  2  1  0  0  0  0
  4 19  1  0  0  0  0
  5  8  1  0  0  0  0
  5  4  1  0  0  0  0
  6  5  1  0  0  0  0
  7  5  1  0  0  0  0
  8 17  2  0  0  0  0
  8  9  1  0  0  0  0
  9 11  2  0  0  0  0
 10  9  1  0  0  0  0
 11 13  1  0  0  0  0
 11 12  1  0  0  0  0
 13 14  1  0  0  0  0
 15 16  1  0  0  0  0
 15 13  2  0  0  0  0
 17 15  1  0  0  0  0
 18 17  1  0  0  0  0
 19 20  1  0  0  0  0
 19 21  1  0  0  0  0
 22 30  1  0  0  0  0
 22 19  1  0  0  0  0
 23 22  2  0  0  0  0
 24 23  1  0  0  0  0
 25 27  2  0  0  0  0
 25 23  1  0  0  0  0
 26 25  1  0  0  0  0
 27 28  1  0  0  0  0
 28 29  1  0  0  0  0
 28 30  2  0  0  0  0
 30 31  1  0  0  0  0
M  END
