1
 OpenBabel05122313063D

 29 28  0  0  0  0  0  0  0  0999 V2000
   -1.3507   -1.5282   -2.0673 S   0  0  0  0  0  1  0  0  0  0  0  0
   -2.5757   -0.7081    0.9741 S   0  0  0  0  0  1  0  0  0  0  0  0
   -3.0260   -1.1734   -0.9608 P   0  0  0  0  0  4  0  0  0  0  0  0
   -4.1982   -2.6053   -0.9858 C   0  0  0  0  0  0  0  0  0  0  0  0
   -5.1957   -2.1655   -0.7634 H   0  0  0  0  0  0  0  0  0  0  0  0
   -4.2162   -2.9613   -2.0396 H   0  0  0  0  0  0  0  0  0  0  0  0
   -3.9012   -3.7522   -0.0057 C   0  0  0  0  0  0  0  0  0  0  0  0
   -3.8027   -3.2893    1.0019 H   0  0  0  0  0  0  0  0  0  0  0  0
   -2.5908   -4.4829   -0.3191 C   0  0  0  0  0  0  0  0  0  0  0  0
   -1.7152   -3.8068   -0.2748 H   0  0  0  0  0  0  0  0  0  0  0  0
   -2.6115   -4.9233   -1.3384 H   0  0  0  0  0  0  0  0  0  0  0  0
   -2.4243   -5.3066    0.4042 H   0  0  0  0  0  0  0  0  0  0  0  0
   -5.0883   -4.7247    0.0244 C   0  0  0  0  0  0  0  0  0  0  0  0
   -5.2373   -5.2043   -0.9666 H   0  0  0  0  0  0  0  0  0  0  0  0
   -6.0341   -4.2124    0.2974 H   0  0  0  0  0  0  0  0  0  0  0  0
   -4.9157   -5.5336    0.7631 H   0  0  0  0  0  0  0  0  0  0  0  0
   -3.9799    0.1744   -1.8014 C   0  0  0  0  0  0  0  0  0  0  0  0
   -3.2223    0.8864   -2.1882 H   0  0  0  0  0  0  0  0  0  0  0  0
   -4.4195   -0.3268   -2.6914 H   0  0  0  0  0  0  0  0  0  0  0  0
   -5.0525    0.9006   -0.9613 C   0  0  0  0  0  0  0  0  0  0  0  0
   -5.4501    0.1863   -0.2039 H   0  0  0  0  0  0  0  0  0  0  0  0
   -6.2220    1.3458   -1.8497 C   0  0  0  0  0  0  0  0  0  0  0  0
   -5.8739    2.0441   -2.6405 H   0  0  0  0  0  0  0  0  0  0  0  0
   -6.9965    1.8731   -1.2559 H   0  0  0  0  0  0  0  0  0  0  0  0
   -6.7069    0.4837   -2.3522 H   0  0  0  0  0  0  0  0  0  0  0  0
   -4.4444    2.0881   -0.2031 C   0  0  0  0  0  0  0  0  0  0  0  0
   -3.6139    1.7527    0.4489 H   0  0  0  0  0  0  0  0  0  0  0  0
   -5.2037    2.5879    0.4321 H   0  0  0  0  0  0  0  0  0  0  0  0
   -4.0463    2.8424   -0.9158 H   0  0  0  0  0  0  0  0  0  0  0  0
  1  3  1  0  0  0  0
  3  2  1  0  0  0  0
  4  3  1  0  0  0  0
  4  5  1  0  0  0  0
  4  7  1  0  0  0  0
  6  4  1  0  0  0  0
  7 13  1  0  0  0  0
  7  8  1  0  0  0  0
  9 10  1  0  0  0  0
  9  7  1  0  0  0  0
  9 12  1  0  0  0  0
 11  9  1  0  0  0  0
 13 15  1  0  0  0  0
 13 16  1  0  0  0  0
 14 13  1  0  0  0  0
 17 20  1  0  0  0  0
 17  3  1  0  0  0  0
 18 17  1  0  0  0  0
 19 17  1  0  0  0  0
 20 21  1  0  0  0  0
 20 26  1  0  0  0  0
 22 24  1  0  0  0  0
 22 20  1  0  0  0  0
 23 22  1  0  0  0  0
 25 22  1  0  0  0  0
 26 28  1  0  0  0  0
 26 27  1  0  0  0  0
 29 26  1  0  0  0  0
M  END
