1
 OpenBabel05122313063D

  8  7  0  0  0  0  0  0  0  0999 V2000
    0.6913   -2.0785    0.0346 S   0  0  0  0  0  1  0  0  0  0  0  0
    2.8885   -1.9541    1.6173 O   0  0  0  0  0  0  0  0  0  0  0  0
    2.8600   -3.4242   -0.1130 O   0  0  0  0  0  0  0  0  0  0  0  0
    2.3119   -2.4431    0.6628 C   0  0  0  0  0  0  0  0  0  0  0  0
    4.1591   -3.8529    0.3049 C   0  0  0  0  0  0  0  0  0  0  0  0
    4.4542   -4.6563   -0.3947 H   0  0  0  0  0  0  0  0  0  0  0  0
    4.1394   -4.2380    1.3451 H   0  0  0  0  0  0  0  0  0  0  0  0
    4.8854   -3.0153    0.2584 H   0  0  0  0  0  0  0  0  0  0  0  0
  1  4  1  0  0  0  0
  3  5  1  0  0  0  0
  3  4  1  0  0  0  0
  4  2  2  0  0  0  0
  5  7  1  0  0  0  0
  6  5  1  0  0  0  0
  8  5  1  0  0  0  0
M  END
