1
 OpenBabel05122313063D

 29 29  0  0  1  0  0  0  0  0999 V2000
   -1.3966   -1.8907   -0.2248 S   0  0  0  0  0  1  0  0  0  0  0  0
   -2.9804   -1.2622   -0.0544 C   0  0  1  0  0  3  0  0  0  0  0  0
   -3.1652    0.0961    0.1046 N   0  0  0  0  0  0  0  0  0  0  0  0
   -4.3747    0.7696    0.2237 C   0  0  0  0  0  0  0  0  0  0  0  0
   -5.4562    0.1680    0.2876 O   0  0  0  0  0  0  0  0  0  0  0  0
   -4.2738    2.2567    0.2835 C   0  0  0  0  0  0  0  0  0  0  0  0
   -5.3952    2.9607    0.7709 C   0  0  0  0  0  0  0  0  0  0  0  0
   -6.2780    2.3840    1.0830 H   0  0  0  0  0  0  0  0  0  0  0  0
   -5.3669    4.3569    0.8536 C   0  0  0  0  0  0  0  0  0  0  0  0
   -6.2396    4.9011    1.2450 H   0  0  0  0  0  0  0  0  0  0  0  0
   -4.2251    5.0625    0.4360 C   0  0  0  0  0  0  0  0  0  0  0  0
   -4.2039    6.1612    0.4994 H   0  0  0  0  0  0  0  0  0  0  0  0
   -3.1149    4.3679   -0.0704 C   0  0  0  0  0  0  0  0  0  0  0  0
   -2.2267    4.9163   -0.4175 H   0  0  0  0  0  0  0  0  0  0  0  0
   -3.1334    2.9691   -0.1481 C   0  0  0  0  0  0  0  0  0  0  0  0
   -2.2653    2.4514   -0.5891 H   0  0  0  0  0  0  0  0  0  0  0  0
   -2.2710    0.6212    0.1175 H   0  0  0  0  0  0  0  0  0  0  0  0
   -4.0581   -2.0512   -0.0727 N   0  0  0  0  0  0  0  0  0  0  0  0
   -4.0025   -3.4926   -0.2420 C   0  0  0  0  0  0  0  0  0  0  0  0
   -3.5241   -3.7294   -1.2201 H   0  0  0  0  0  0  0  0  0  0  0  0
   -3.3314   -3.9233    0.5363 H   0  0  0  0  0  0  0  0  0  0  0  0
   -5.3969   -4.1089   -0.1582 C   0  0  0  0  0  0  0  0  0  0  0  0
   -5.8494   -3.8444    0.8223 H   0  0  0  0  0  0  0  0  0  0  0  0
   -6.0432   -3.6463   -0.9358 H   0  0  0  0  0  0  0  0  0  0  0  0
   -5.3716   -5.6264   -0.3324 C   0  0  0  0  0  0  0  0  0  0  0  0
   -4.7541   -6.1130    0.4506 H   0  0  0  0  0  0  0  0  0  0  0  0
   -6.3910   -6.0543   -0.2688 H   0  0  0  0  0  0  0  0  0  0  0  0
   -4.9482   -5.9136   -1.3170 H   0  0  0  0  0  0  0  0  0  0  0  0
   -4.9552   -1.5386    0.0605 H   0  0  0  0  0  0  0  0  0  0  0  0
  2  1  1  6  0  0  0
  2  3  1  0  0  0  0
  3 17  1  0  0  0  0
  3  4  1  0  0  0  0
  4  6  1  0  0  0  0
  4  5  2  0  0  0  0
  6  7  1  0  0  0  0
  7  9  2  0  0  0  0
  7  8  1  0  0  0  0
  9 10  1  0  0  0  0
 11 12  1  0  0  0  0
 11  9  1  0  0  0  0
 13 11  2  0  0  0  0
 14 13  1  0  0  0  0
 15 13  1  0  0  0  0
 15  6  2  0  0  0  0
 16 15  1  0  0  0  0
 18  2  1  0  0  0  0
 18 29  1  0  0  0  0
 19 22  1  0  0  0  0
 19 18  1  0  0  0  0
 19 21  1  0  0  0  0
 20 19  1  0  0  0  0
 22 23  1  0  0  0  0
 24 22  1  0  0  0  0
 25 27  1  0  0  0  0
 25 22  1  0  0  0  0
 25 26  1  0  0  0  0
 28 25  1  0  0  0  0
M  END
