1
 OpenBabel05122313063D

 21 21  0  0  1  0  0  0  0  0999 V2000
    0.1347    0.4394   -1.5301 S   0  0  0  0  0  1  0  0  0  0  0  0
    0.7968    1.8860   -0.8335 C   0  0  1  0  0  3  0  0  0  0  0  0
    1.9693    2.4042   -1.2898 N   0  0  0  0  0  0  0  0  0  0  0  0
    2.7237    1.7492   -2.3595 C   0  0  0  0  0  0  0  0  0  0  0  0
    3.2584    2.5460   -2.9177 H   0  0  0  0  0  0  0  0  0  0  0  0
    1.9955    1.2968   -3.0619 H   0  0  0  0  0  0  0  0  0  0  0  0
    3.6966    0.6885   -1.8453 C   0  0  0  0  0  0  0  0  0  0  0  0
    4.4272    1.1152   -1.1276 H   0  0  0  0  0  0  0  0  0  0  0  0
    4.2649    0.2422   -2.6858 H   0  0  0  0  0  0  0  0  0  0  0  0
    3.1329   -0.1172   -1.3344 H   0  0  0  0  0  0  0  0  0  0  0  0
    2.5517    3.5970   -0.6701 C   0  0  0  0  0  0  0  0  0  0  0  0
    2.2263    4.5132   -1.2167 H   0  0  0  0  0  0  0  0  0  0  0  0
    3.6533    3.5306   -0.7778 H   0  0  0  0  0  0  0  0  0  0  0  0
    2.1648    3.6871    0.8040 C   0  0  0  0  0  0  0  0  0  0  0  0
    2.5592    4.6227    1.2461 H   0  0  0  0  0  0  0  0  0  0  0  0
    2.6168    2.8344    1.3532 H   0  0  0  0  0  0  0  0  0  0  0  0
    0.6463    3.6317    0.9322 C   0  0  0  0  0  0  0  0  0  0  0  0
    0.3305    3.4876    1.9857 H   0  0  0  0  0  0  0  0  0  0  0  0
    0.1920    4.5876    0.5842 H   0  0  0  0  0  0  0  0  0  0  0  0
    0.1349    2.5183    0.1528 N   0  0  0  0  0  0  0  0  0  0  0  0
   -0.7478    2.0530    0.4618 H   0  0  0  0  0  0  0  0  0  0  0  0
  2  1  1  6  0  0  0
  2 20  1  0  0  0  0
  3  2  1  0  0  0  0
  3 11  1  0  0  0  0
  4  7  1  0  0  0  0
  4  3  1  0  0  0  0
  5  4  1  0  0  0  0
  6  4  1  0  0  0  0
  7 10  1  0  0  0  0
  7  8  1  0  0  0  0
  9  7  1  0  0  0  0
 11 14  1  0  0  0  0
 12 11  1  0  0  0  0
 13 11  1  0  0  0  0
 14 17  1  0  0  0  0
 14 15  1  0  0  0  0
 14 16  1  0  0  0  0
 17 18  1  0  0  0  0
 19 17  1  0  0  0  0
 20 21  1  0  0  0  0
 20 17  1  0  0  0  0
M  END
