1
 OpenBabel05122313063D

 21 21  0  0  0  0  0  0  0  0999 V2000
    0.2748   -0.0001   -1.6257 S   0  0  0  0  0  1  0  0  0  0  0  0
   -1.3248   -0.0004   -0.8124 C   0  0  0  0  0  0  0  0  0  0  0  0
   -1.9730   -1.2361   -0.5298 C   0  0  0  0  0  0  0  0  0  0  0  0
   -3.2176   -1.2062    0.1235 C   0  0  0  0  0  0  0  0  0  0  0  0
   -3.8493   -0.0008    0.4801 C   0  0  0  0  0  0  0  0  0  0  0  0
   -3.2179    1.2052    0.1231 C   0  0  0  0  0  0  0  0  0  0  0  0
   -1.9737    1.2354   -0.5299 C   0  0  0  0  0  0  0  0  0  0  0  0
   -1.3726   -2.5490   -0.9556 C   0  0  0  0  0  0  0  0  0  0  0  0
   -5.1584    0.0006    1.2272 C   0  0  0  0  0  0  0  0  0  0  0  0
   -1.3735    2.5482   -0.9563 C   0  0  0  0  0  0  0  0  0  0  0  0
   -3.7152   -2.1629    0.3519 H   0  0  0  0  0  0  0  0  0  0  0  0
   -3.7160    2.1618    0.3511 H   0  0  0  0  0  0  0  0  0  0  0  0
   -2.0095   -3.3991   -0.6449 H   0  0  0  0  0  0  0  0  0  0  0  0
   -0.3582   -2.6916   -0.5353 H   0  0  0  0  0  0  0  0  0  0  0  0
   -1.2521   -2.5830   -2.0588 H   0  0  0  0  0  0  0  0  0  0  0  0
   -5.7421   -0.9207    1.0328 H   0  0  0  0  0  0  0  0  0  0  0  0
   -5.7848    0.8729    0.9538 H   0  0  0  0  0  0  0  0  0  0  0  0
   -4.9894    0.0544    2.3248 H   0  0  0  0  0  0  0  0  0  0  0  0
   -2.0107    3.3984   -0.6461 H   0  0  0  0  0  0  0  0  0  0  0  0
   -1.2528    2.5817   -2.0595 H   0  0  0  0  0  0  0  0  0  0  0  0
   -0.3593    2.6913   -0.5359 H   0  0  0  0  0  0  0  0  0  0  0  0
  1  2  1  0  0  0  0
  2  7  2  0  0  0  0
  2  3  1  0  0  0  0
  3  4  2  0  0  0  0
  4 11  1  0  0  0  0
  4  5  1  0  0  0  0
  5  9  1  0  0  0  0
  6 12  1  0  0  0  0
  6  5  2  0  0  0  0
  7  6  1  0  0  0  0
  8 13  1  0  0  0  0
  8 14  1  0  0  0  0
  8  3  1  0  0  0  0
  9 18  1  0  0  0  0
 10 19  1  0  0  0  0
 10 21  1  0  0  0  0
 10  7  1  0  0  0  0
 15  8  1  0  0  0  0
 16  9  1  0  0  0  0
 17  9  1  0  0  0  0
 20 10  1  0  0  0  0
M  END
