1
 OpenBabel05122313063D

 19 18  0  0  1  0  0  0  0  0999 V2000
    1.9729   -0.9209   -0.8952 S   0  0  0  0  0  1  0  0  0  0  0  0
    3.1958   -0.4194    0.1888 C   0  0  2  0  0  3  0  0  0  0  0  0
    4.4785   -0.7346    0.0003 O   0  0  0  0  0  0  0  0  0  0  0  0
    2.9581    0.3027    1.2892 N   0  0  0  0  0  0  0  0  0  0  0  0
    4.8511   -1.5407   -1.1411 C   0  0  0  0  0  0  0  0  0  0  0  0
    3.9860    0.9092    2.1292 C   0  0  0  0  0  0  0  0  0  0  0  0
    1.9793    0.6280    1.3624 H   0  0  0  0  0  0  0  0  0  0  0  0
    6.3514   -1.7318   -1.0981 C   0  0  0  0  0  0  0  0  0  0  0  0
    4.5186   -1.0172   -2.0630 H   0  0  0  0  0  0  0  0  0  0  0  0
    4.3003   -2.5040   -1.0856 H   0  0  0  0  0  0  0  0  0  0  0  0
    4.5051    2.2346    1.5687 C   0  0  0  0  0  0  0  0  0  0  0  0
    4.8101    0.1777    2.2447 H   0  0  0  0  0  0  0  0  0  0  0  0
    3.5344    1.0533    3.1313 H   0  0  0  0  0  0  0  0  0  0  0  0
    6.6716   -2.3469   -1.9617 H   0  0  0  0  0  0  0  0  0  0  0  0
    6.8790   -0.7590   -1.1511 H   0  0  0  0  0  0  0  0  0  0  0  0
    6.6613   -2.2504   -0.1695 H   0  0  0  0  0  0  0  0  0  0  0  0
    5.2391    2.6868    2.2655 H   0  0  0  0  0  0  0  0  0  0  0  0
    5.0042    2.0770    0.5923 H   0  0  0  0  0  0  0  0  0  0  0  0
    3.6740    2.9509    1.4134 H   0  0  0  0  0  0  0  0  0  0  0  0
  2  1  1  1  0  0  0
  2  4  1  0  0  0  0
  3  2  1  0  0  0  0
  4  7  1  0  0  0  0
  4  6  1  0  0  0  0
  5  8  1  0  0  0  0
  5 10  1  0  0  0  0
  5  3  1  0  0  0  0
  6 12  1  0  0  0  0
  6 13  1  0  0  0  0
  8 16  1  0  0  0  0
  9  5  1  0  0  0  0
 11  6  1  0  0  0  0
 11 17  1  0  0  0  0
 14  8  1  0  0  0  0
 15  8  1  0  0  0  0
 18 11  1  0  0  0  0
 19 11  1  0  0  0  0
M  END
