1
 OpenBabel05122313063D

 14 13  0  0  0  0  0  0  0  0999 V2000
    0.6124    2.7982    0.7755 S   0  0  0  0  0  1  0  0  0  0  0  0
    3.2101    3.5295    0.7560 N   0  0  0  0  0  0  0  0  0  0  0  0
    4.0970    3.6219    0.2575 H   0  0  0  0  0  0  0  0  0  0  0  0
    2.3252    2.8703   -1.2768 N   0  0  0  0  0  0  0  0  0  0  0  0
    1.5207    2.4322   -1.7943 H   0  0  0  0  0  0  0  0  0  0  0  0
    2.1467    3.0765    0.0376 C   0  0  0  0  0  3  0  0  0  0  0  0
    3.2276    3.7602    2.1850 C   0  0  0  0  0  0  0  0  0  0  0  0
    3.7023    4.7356    2.4154 H   0  0  0  0  0  0  0  0  0  0  0  0
    3.7753    2.9576    2.7261 H   0  0  0  0  0  0  0  0  0  0  0  0
    2.1811    3.7713    2.5443 H   0  0  0  0  0  0  0  0  0  0  0  0
    3.5790    3.0295   -1.9756 C   0  0  0  0  0  0  0  0  0  0  0  0
    3.9461    4.0807   -1.9397 H   0  0  0  0  0  0  0  0  0  0  0  0
    3.4187    2.7591   -3.0344 H   0  0  0  0  0  0  0  0  0  0  0  0
    4.3722    2.3541   -1.5806 H   0  0  0  0  0  0  0  0  0  0  0  0
  2  7  1  0  0  0  0
  3  2  1  0  0  0  0
  4  6  1  0  0  0  0
  5  4  1  0  0  0  0
  6  2  1  0  0  0  0
  6  1  1  0  0  0  0
  7  8  1  0  0  0  0
  7 10  1  0  0  0  0
  7  9  1  0  0  0  0
 11 12  1  0  0  0  0
 11 14  1  0  0  0  0
 11  4  1  0  0  0  0
 13 11  1  0  0  0  0
M  END
