14
 OpenBabel05122313063D

 14 15  0  0  1  0  0  0  0  0999 V2000
    5.1829    1.4371    0.0004 C   0  0  0  0  0  0  0  0  0  0  0  0
    5.9976    2.1722    0.0006 H   0  0  0  0  0  0  0  0  0  0  0  0
    3.8298    1.6904    0.0002 C   0  0  0  0  0  0  0  0  0  0  0  0
    3.2303    3.0644    0.0002 C   0  0  0  0  0  0  0  0  0  0  0  0
    4.0209    3.8383    0.0001 H   0  0  0  0  0  0  0  0  0  0  0  0
    2.5834    3.2196    0.8875 H   0  0  0  0  0  0  0  0  0  0  0  0
    2.5833    3.2196   -0.8870 H   0  0  0  0  0  0  0  0  0  0  0  0
    3.0755    0.4483    0.0001 C   0  0  0  0  0  0  0  0  0  0  0  0
    3.9124   -0.6858    0.0000 C   0  0  1  0  0  3  0  0  0  0  0  0
    1.6631    0.1997    0.0001 C   0  0  0  0  0  0  0  0  0  0  0  0
    5.5920   -0.2656    0.0003 S   0  0  0  0  0  0  0  0  0  0  0  0
    3.2314   -2.2777   -0.0003 S   0  0  0  0  0  0  0  0  0  0  0  0
    1.1930   -1.4865   -0.0002 S   0  0  0  0  0  0  0  0  0  0  0  0
    0.4090    1.3343    0.0003 S   0  0  0  0  0  1  0  0  0  0  0  0
  1  2  1  0  0  0  0
  3  1  2  0  0  0  0
  4  3  1  0  0  0  0
  4  6  1  0  0  0  0
  5  4  1  0  0  0  0
  7  4  1  0  0  0  0
  8 10  2  0  0  0  0
  8  3  1  0  0  0  0
  9 12  1  1  0  0  0
  9  8  1  0  0  0  0
  9 11  1  0  0  0  0
 10 14  1  0  0  0  0
 11  1  1  0  0  0  0
 12 13  1  0  0  0  0
 13 10  1  0  0  0  0
M  END
