1
 OpenBabel05122313063D

 13 13  0  0  1  0  0  0  0  0999 V2000
   -0.5706   -0.3369   -1.5481 S   0  0  0  0  0  1  0  0  0  0  0  0
   -2.5019   -1.6171   -0.0473 N   0  0  0  0  0  0  0  0  0  0  0  0
   -3.3065   -0.0370   -1.3187 N   0  0  0  0  0  0  0  0  0  0  0  0
   -2.1499   -0.6861   -0.9802 C   0  0  1  0  0  3  0  0  0  0  0  0
   -3.8469   -1.5165    0.2490 C   0  0  0  0  0  0  0  0  0  0  0  0
   -4.3574   -0.5316   -0.5584 C   0  0  0  0  0  0  0  0  0  0  0  0
   -3.3279    1.1764   -2.1179 C   0  0  0  0  0  0  0  0  0  0  0  0
   -1.7610   -2.0404    0.5507 H   0  0  0  0  0  0  0  0  0  0  0  0
   -4.3316   -2.1481    0.9981 H   0  0  0  0  0  0  0  0  0  0  0  0
   -5.3739   -0.1404   -0.6543 H   0  0  0  0  0  0  0  0  0  0  0  0
   -4.3590    1.3664   -2.4670 H   0  0  0  0  0  0  0  0  0  0  0  0
   -2.6463    1.0564   -2.9795 H   0  0  0  0  0  0  0  0  0  0  0  0
   -2.9670    2.0150   -1.4859 H   0  0  0  0  0  0  0  0  0  0  0  0
  2  5  1  0  0  0  0
  2  8  1  0  0  0  0
  3  4  1  0  0  0  0
  3  6  1  0  0  0  0
  4  1  1  1  0  0  0
  4  2  1  0  0  0  0
  5  9  1  0  0  0  0
  6  5  2  0  0  0  0
  7 13  1  0  0  0  0
  7  3  1  0  0  0  0
 10  6  1  0  0  0  0
 11  7  1  0  0  0  0
 12  7  1  0  0  0  0
M  END
