1
 OpenBabel05122313063D

 19 19  0  0  0  0  0  0  0  0999 V2000
    2.1808   -0.6383   -0.5638 S   0  0  0  0  0  0  0  0  0  0  0  0
    5.3674    1.1619    0.2206 C   0  0  0  0  0  0  0  0  0  0  0  0
    4.8326    2.1247    0.2289 H   0  0  0  0  0  0  0  0  0  0  0  0
    4.6636   -0.0190    0.5336 C   0  0  0  0  0  0  0  0  0  0  0  0
    5.3547   -1.2490    0.5183 C   0  0  0  0  0  0  0  0  0  0  0  0
    4.8102   -2.1778    0.7512 H   0  0  0  0  0  0  0  0  0  0  0  0
    6.7201   -1.2949    0.2068 C   0  0  0  0  0  0  0  0  0  0  0  0
    7.2484   -2.2604    0.2030 H   0  0  0  0  0  0  0  0  0  0  0  0
    7.4141   -0.1117   -0.0984 C   0  0  0  0  0  0  0  0  0  0  0  0
    8.4867   -0.1484   -0.3419 H   0  0  0  0  0  0  0  0  0  0  0  0
    6.7351    1.1164   -0.0904 C   0  0  0  0  0  0  0  0  0  0  0  0
    7.2733    2.0469   -0.3269 H   0  0  0  0  0  0  0  0  0  0  0  0
    3.1944    0.0369    0.8376 C   0  0  0  0  0  0  0  0  0  0  0  0
    2.8183    1.0628    1.0239 H   0  0  0  0  0  0  0  0  0  0  0  0
    2.9083   -0.6127    1.6887 H   0  0  0  0  0  0  0  0  0  0  0  0
    2.6437    0.5228   -1.8882 C   0  0  0  0  0  0  0  0  0  0  0  0
    3.7271    0.4196   -2.0897 H   0  0  0  0  0  0  0  0  0  0  0  0
    2.3700    1.5502   -1.5783 H   0  0  0  0  0  0  0  0  0  0  0  0
    2.0593    0.2218   -2.7773 H   0  0  0  0  0  0  0  0  0  0  0  0
  1 13  1  0  0  0  0
  2  3  1  0  0  0  0
  2  4  1  0  0  0  0
  4 13  1  0  0  0  0
  5  4  2  0  0  0  0
  5  6  1  0  0  0  0
  7  5  1  0  0  0  0
  8  7  1  0  0  0  0
  9 11  1  0  0  0  0
  9  7  2  0  0  0  0
 10  9  1  0  0  0  0
 11  2  2  0  0  0  0
 12 11  1  0  0  0  0
 13 14  1  0  0  0  0
 13 15  1  0  0  0  0
 16 18  1  0  0  0  0
 16  1  1  0  0  0  0
 17 16  1  0  0  0  0
 19 16  1  0  0  0  0
M  END
