1
 OpenBabel05122313063D

 12 11  0  0  0  0  0  0  0  0999 V2000
    2.1601   -2.6089    0.2250 S   0  0  0  0  0  0  0  0  0  0  0  0
    2.4170   -3.3854   -1.4028 C   0  0  0  0  0  0  0  0  0  0  0  0
    2.5636   -2.5644   -2.1282 H   0  0  0  0  0  0  0  0  0  0  0  0
    1.5399   -3.9955   -1.6888 H   0  0  0  0  0  0  0  0  0  0  0  0
    3.3309   -4.0078   -1.3556 H   0  0  0  0  0  0  0  0  0  0  0  0
    1.8194   -4.1056    1.2463 C   0  0  0  0  0  0  0  0  0  0  0  0
    1.0530   -4.7101    0.7216 H   0  0  0  0  0  0  0  0  0  0  0  0
    2.7702   -4.6772    1.2550 H   0  0  0  0  0  0  0  0  0  0  0  0
    1.3776   -3.7189    2.6492 C   0  0  0  0  0  0  0  0  0  0  0  0
    1.1888   -4.6335    3.2456 H   0  0  0  0  0  0  0  0  0  0  0  0
    0.4392   -3.1271    2.6179 H   0  0  0  0  0  0  0  0  0  0  0  0
    2.1519   -3.1247    3.1735 H   0  0  0  0  0  0  0  0  0  0  0  0
  1  6  1  0  0  0  0
  2  5  1  0  0  0  0
  2  1  1  0  0  0  0
  3  2  1  0  0  0  0
  4  2  1  0  0  0  0
  6  8  1  0  0  0  0
  6  9  1  0  0  0  0
  7  6  1  0  0  0  0
  9 12  1  0  0  0  0
  9 10  1  0  0  0  0
 11  9  1  0  0  0  0
M  END
