1
 OpenBabel05122313063D

 12 12  0  0  0  0  0  0  0  0999 V2000
    1.1298    2.0856   -0.6103 S   0  0  0  0  0  1  0  0  0  0  0  0
    0.9282    2.5842    2.7344 S   0  0  0  0  0  0  0  0  0  0  0  0
   -1.3873    3.7330   -0.7701 S   0  0  0  0  0  0  0  0  0  0  0  0
   -1.6059    4.1738    2.1016 S   0  0  0  0  0  0  0  0  0  0  0  0
   -3.7634    5.2729    0.3060 S   0  0  0  0  0  0  0  0  0  0  0  0
   -0.0982    3.0153    0.2044 C   0  0  0  0  0  0  0  0  0  0  0  0
   -0.2274    3.2167    1.5639 C   0  0  0  0  0  0  0  0  0  0  0  0
   -2.3582    4.4422    0.5190 C   0  0  0  0  0  0  0  0  0  0  0  0
   -0.1824    2.1097    4.1060 C   0  0  0  0  0  0  0  0  0  0  0  0
   -0.6827    2.9917    4.5502 H   0  0  0  0  0  0  0  0  0  0  0  0
    0.4663    1.6426    4.8711 H   0  0  0  0  0  0  0  0  0  0  0  0
   -0.9296    1.3724    3.7516 H   0  0  0  0  0  0  0  0  0  0  0  0
  1  6  1  0  0  0  0
  2  9  1  0  0  0  0
  3  6  1  0  0  0  0
  3  8  1  0  0  0  0
  5  8  2  0  0  0  0
  6  7  2  0  0  0  0
  7  4  1  0  0  0  0
  7  2  1  0  0  0  0
  8  4  1  0  0  0  0
  9 10  1  0  0  0  0
  9 11  1  0  0  0  0
 12  9  1  0  0  0  0
M  END
