1
 OpenBabel05122313063D

  9  9  0  0  1  0  0  0  0  0999 V2000
   -1.0170    2.0334   -2.0938 S   0  0  0  0  0  1  0  0  0  0  0  0
   -2.9398    4.4785    0.2187 C   0  0  0  0  0  0  0  0  0  0  0  0
   -3.0194    5.1770    1.0598 H   0  0  0  0  0  0  0  0  0  0  0  0
   -3.9371    4.1885   -0.5953 N   0  0  0  0  0  0  0  0  0  0  0  0
   -1.7896    3.8118   -0.0997 N   0  0  0  0  0  0  0  0  0  0  0  0
   -0.8087    3.8517    0.4329 H   0  0  0  0  0  0  0  0  0  0  0  0
   -3.3745    3.2982   -1.4545 N   0  0  0  0  0  0  0  0  0  0  0  0
   -3.9279    2.8542   -2.1888 H   0  0  0  0  0  0  0  0  0  0  0  0
   -2.0581    3.0365   -1.1925 C   0  0  1  0  0  3  0  0  0  0  0  0
  2  3  1  0  0  0  0
  4  2  2  0  0  0  0
  5  2  1  0  0  0  0
  5  6  1  0  0  0  0
  7  9  1  0  0  0  0
  7  4  1  0  0  0  0
  8  7  1  0  0  0  0
  9  1  1  6  0  0  0
  9  5  1  0  0  0  0
M  END
