1
 OpenBabel05122313063D

 13 13  0  0  1  0  0  0  0  0999 V2000
    1.2398   -1.2901   -0.4020 S   0  0  0  0  0  1  0  0  0  0  0  0
    2.6974   -0.3261   -0.1958 C   0  0  2  0  0  3  0  0  0  0  0  0
    3.8363   -0.9280   -0.4921 N   0  0  0  0  0  0  0  0  0  0  0  0
    2.6774    0.9497    0.3134 N   0  0  0  0  0  0  0  0  0  0  0  0
    1.7581    1.4199    0.4348 H   0  0  0  0  0  0  0  0  0  0  0  0
    5.0110   -0.2908   -0.2817 C   0  0  0  0  0  0  0  0  0  0  0  0
    5.0475    1.0429    0.2562 C   0  0  0  0  0  0  0  0  0  0  0  0
    5.9879    1.5797    0.4358 H   0  0  0  0  0  0  0  0  0  0  0  0
    3.8384    1.6323    0.5286 C   0  0  0  0  0  0  0  0  0  0  0  0
    3.7402    2.6531    0.9243 H   0  0  0  0  0  0  0  0  0  0  0  0
    6.1286   -0.9588   -0.6014 N   0  0  0  0  0  0  0  0  0  0  0  0
    6.0415   -1.9048   -0.9793 H   0  0  0  0  0  0  0  0  0  0  0  0
    7.0555   -0.5547   -0.4758 H   0  0  0  0  0  0  0  0  0  0  0  0
  2  1  1  1  0  0  0
  2  4  1  0  0  0  0
  3  6  2  0  0  0  0
  3  2  1  0  0  0  0
  4  5  1  0  0  0  0
  4  9  1  0  0  0  0
  6  7  1  0  0  0  0
  7  8  1  0  0  0  0
  7  9  2  0  0  0  0
  9 10  1  0  0  0  0
 11 13  1  0  0  0  0
 11  6  1  0  0  0  0
 12 11  1  0  0  0  0
M  END
