1
 OpenBabel05122313063D

  4  3  0  0  0  0  0  0  0  0999 V2000
    0.0637    0.0557    2.1157 S   0  0  0  0  0  1  0  0  0  0  0  0
   -2.5796   -0.4293    2.4050 O   0  0  0  0  0  0  0  0  0  0  0  0
   -1.4653   -0.2221    2.8962 C   0  0  0  0  0  0  0  0  0  0  0  0
   -1.3327   -0.1839    4.0173 H   0  0  0  0  0  0  0  0  0  0  0  0
  1  3  1  0  0  0  0
  2  3  2  0  0  0  0
  3  4  1  0  0  0  0
M  END
