1
 OpenBabel05122313063D

 24 23  0  0  0  0  0  0  0  0999 V2000
    1.0780   -1.4086   -0.3645 S   0  0  0  0  0  1  0  0  0  0  0  0
    0.8220    1.5076    0.4535 S   0  0  0  0  0  0  0  0  0  0  0  0
    3.1446    0.2284    0.0462 N   0  0  0  0  0  0  0  0  0  0  0  0
    1.7893    0.1590    0.0550 C   0  0  0  0  0  0  0  0  0  0  0  0
    3.9940   -0.9077   -0.3222 C   0  0  0  0  0  0  0  0  0  0  0  0
    4.9091   -0.4984   -0.8004 H   0  0  0  0  0  0  0  0  0  0  0  0
    3.4663   -1.5036   -1.0953 H   0  0  0  0  0  0  0  0  0  0  0  0
    4.3656   -1.8009    0.8671 C   0  0  0  0  0  0  0  0  0  0  0  0
    4.8715   -1.1852    1.6424 H   0  0  0  0  0  0  0  0  0  0  0  0
    3.4255   -2.1760    1.3234 H   0  0  0  0  0  0  0  0  0  0  0  0
    5.2577   -2.9696    0.4519 C   0  0  0  0  0  0  0  0  0  0  0  0
    5.5193   -3.6059    1.3202 H   0  0  0  0  0  0  0  0  0  0  0  0
    6.2076   -2.6180   -0.0030 H   0  0  0  0  0  0  0  0  0  0  0  0
    4.7510   -3.6158   -0.2946 H   0  0  0  0  0  0  0  0  0  0  0  0
    3.8360    1.4671    0.4177 C   0  0  0  0  0  0  0  0  0  0  0  0
    4.8060    1.1826    0.8780 H   0  0  0  0  0  0  0  0  0  0  0  0
    3.2263    1.9759    1.1920 H   0  0  0  0  0  0  0  0  0  0  0  0
    4.0562    2.4106   -0.7693 C   0  0  0  0  0  0  0  0  0  0  0  0
    4.6302    1.8807   -1.5608 H   0  0  0  0  0  0  0  0  0  0  0  0
    3.0613    2.6507   -1.1991 H   0  0  0  0  0  0  0  0  0  0  0  0
    4.7793    3.6917   -0.3570 C   0  0  0  0  0  0  0  0  0  0  0  0
    4.9337    4.3649   -1.2233 H   0  0  0  0  0  0  0  0  0  0  0  0
    5.7767    3.4771    0.0815 H   0  0  0  0  0  0  0  0  0  0  0  0
    4.1959    4.2529    0.4020 H   0  0  0  0  0  0  0  0  0  0  0  0
  1  4  1  0  0  0  0
  3  4  1  0  0  0  0
  3 15  1  0  0  0  0
  4  2  2  0  0  0  0
  5  3  1  0  0  0  0
  5  8  1  0  0  0  0
  6  5  1  0  0  0  0
  7  5  1  0  0  0  0
  8 10  1  0  0  0  0
  8  9  1  0  0  0  0
 11  8  1  0  0  0  0
 11 12  1  0  0  0  0
 13 11  1  0  0  0  0
 14 11  1  0  0  0  0
 15 16  1  0  0  0  0
 15 17  1  0  0  0  0
 18 21  1  0  0  0  0
 18 15  1  0  0  0  0
 19 18  1  0  0  0  0
 20 18  1  0  0  0  0
 21 23  1  0  0  0  0
 21 24  1  0  0  0  0
 22 21  1  0  0  0  0
M  END
