2
 OpenBabel05122313063D

 12 12  0  0  0  0  0  0  0  0999 V2000
   -6.8086   -0.0808   -0.7329 F   0  0  0  0  0  0  0  0  0  0  0  0
   -1.3775    0.1624   -3.1673 S   0  0  0  0  0  1  0  0  0  0  0  0
   -2.9923    0.1002   -2.4048 C   0  0  0  0  0  0  0  0  0  0  0  0
   -3.8649   -0.9742   -2.6965 C   0  0  0  0  0  0  0  0  0  0  0  0
   -3.5132   -1.7746   -3.3640 H   0  0  0  0  0  0  0  0  0  0  0  0
   -5.1525   -1.0358   -2.1445 C   0  0  0  0  0  0  0  0  0  0  0  0
   -5.8340   -1.8697   -2.3686 H   0  0  0  0  0  0  0  0  0  0  0  0
   -5.5741   -0.0178   -1.2812 C   0  0  0  0  0  0  0  0  0  0  0  0
   -4.7390    1.0628   -0.9740 C   0  0  0  0  0  0  0  0  0  0  0  0
   -5.1001    1.8502   -0.2962 H   0  0  0  0  0  0  0  0  0  0  0  0
   -3.4591    1.1220   -1.5438 C   0  0  0  0  0  0  0  0  0  0  0  0
   -2.7994    1.9695   -1.3080 H   0  0  0  0  0  0  0  0  0  0  0  0
  2  3  1  0  0  0  0
  3 11  1  0  0  0  0
  4  3  2  0  0  0  0
  4  6  1  0  0  0  0
  5  4  1  0  0  0  0
  6  8  2  0  0  0  0
  7  6  1  0  0  0  0
  8  9  1  0  0  0  0
  8  1  1  0  0  0  0
  9 10  1  0  0  0  0
 11 12  1  0  0  0  0
 11  9  2  0  0  0  0
M  END
