2
 OpenBabel05122313063D

 16 16  0  0  0  0  0  0  0  0999 V2000
   -5.0474    0.9529   -0.1366 O   0  0  0  0  0  0  0  0  0  0  0  0
   -1.1022   -0.1583   -3.2526 S   0  0  0  0  0  1  0  0  0  0  0  0
   -2.7795   -0.3632   -2.6860 C   0  0  0  0  0  0  0  0  0  0  0  0
   -3.3275    0.3999   -1.6369 C   0  0  0  0  0  0  0  0  0  0  0  0
   -2.7327    1.1676   -1.1201 H   0  0  0  0  0  0  0  0  0  0  0  0
   -4.6513    0.1903   -1.2055 C   0  0  0  0  0  0  0  0  0  0  0  0
   -5.4680   -0.7633   -1.8444 C   0  0  0  0  0  0  0  0  0  0  0  0
   -6.5036   -0.9398   -1.5261 H   0  0  0  0  0  0  0  0  0  0  0  0
   -4.9262   -1.4995   -2.9148 C   0  0  0  0  0  0  0  0  0  0  0  0
   -5.5570   -2.2461   -3.4226 H   0  0  0  0  0  0  0  0  0  0  0  0
   -3.6048   -1.3179   -3.3330 C   0  0  0  0  0  0  0  0  0  0  0  0
   -3.1849   -1.9190   -4.1523 H   0  0  0  0  0  0  0  0  0  0  0  0
   -6.3560    0.7723    0.3584 C   0  0  0  0  0  0  0  0  0  0  0  0
   -6.4736    1.4751    1.2050 H   0  0  0  0  0  0  0  0  0  0  0  0
   -6.5245   -0.2665    0.7260 H   0  0  0  0  0  0  0  0  0  0  0  0
   -7.1304    1.0016   -0.4088 H   0  0  0  0  0  0  0  0  0  0  0  0
  1 13  1  0  0  0  0
  2  3  1  0  0  0  0
  3  4  1  0  0  0  0
  4  6  2  0  0  0  0
  4  5  1  0  0  0  0
  6  1  1  0  0  0  0
  7  8  1  0  0  0  0
  7  6  1  0  0  0  0
  9  7  2  0  0  0  0
 10  9  1  0  0  0  0
 11  9  1  0  0  0  0
 11  3  2  0  0  0  0
 12 11  1  0  0  0  0
 13 15  1  0  0  0  0
 13 14  1  0  0  0  0
 16 13  1  0  0  0  0
M  END
