1
 OpenBabel05122313063D

 60 62  0  0  1  0  0  0  0  0999 V2000
    0.4676   -0.1173   -1.3714 S   0  0  0  0  0  1  0  0  0  0  0  0
    0.1441   -1.7549    0.8760 N   0  0  0  0  0  0  0  0  0  0  0  0
    2.2267   -1.2365    0.3951 N   0  0  0  0  0  0  0  0  0  0  0  0
   -1.2942   -1.7822    0.8951 C   0  0  0  0  0  0  0  0  0  0  0  0
    2.2574   -2.1318    1.4653 C   0  0  0  0  0  0  0  0  0  0  0  0
    3.1909   -2.4310    1.9440 H   0  0  0  0  0  0  0  0  0  0  0  0
    0.9188   -1.0161    0.0120 C   0  0  1  0  0  3  0  0  0  0  0  0
    3.5189    0.7391   -0.0192 N   0  0  0  0  0  0  0  0  0  0  0  0
   -1.9607   -0.9611    1.8335 C   0  0  0  0  0  0  0  0  0  0  0  0
    2.6476    1.6067    0.6595 C   0  0  0  0  0  0  0  0  0  0  0  0
    1.1482    3.5107    0.4848 C   0  0  0  0  0  0  0  0  0  0  0  0
    0.6626    4.2860   -0.1270 H   0  0  0  0  0  0  0  0  0  0  0  0
   -4.0869   -1.6737    0.8305 C   0  0  0  0  0  0  0  0  0  0  0  0
    3.3766   -0.5175   -0.1672 C   0  0  0  0  0  0  0  0  0  0  0  0
    5.0861   -2.3904   -0.1208 C   0  0  0  0  0  0  0  0  0  0  0  0
    4.4104   -3.1794    0.2626 H   0  0  0  0  0  0  0  0  0  0  0  0
    5.5959   -1.9036    0.7357 H   0  0  0  0  0  0  0  0  0  0  0  0
    5.8611   -2.8975   -0.7298 H   0  0  0  0  0  0  0  0  0  0  0  0
   -3.3619   -0.9353    1.7845 C   0  0  0  0  0  0  0  0  0  0  0  0
   -3.9013   -0.2632    2.4690 H   0  0  0  0  0  0  0  0  0  0  0  0
    4.3445   -1.3573   -1.0019 C   0  0  0  0  0  0  0  0  0  0  0  0
    5.3717   -0.4223   -1.6585 C   0  0  0  0  0  0  0  0  0  0  0  0
    6.0685   -1.0164   -2.2829 H   0  0  0  0  0  0  0  0  0  0  0  0
    5.9567    0.1300   -0.8986 H   0  0  0  0  0  0  0  0  0  0  0  0
    4.8716    0.3285   -2.2993 H   0  0  0  0  0  0  0  0  0  0  0  0
   -1.9766   -2.5800   -0.0466 C   0  0  0  0  0  0  0  0  0  0  0  0
    0.9613   -2.4412    1.7691 C   0  0  0  0  0  0  0  0  0  0  0  0
    0.5364   -3.0879    2.5415 H   0  0  0  0  0  0  0  0  0  0  0  0
   -3.3800   -2.5086   -0.0536 C   0  0  0  0  0  0  0  0  0  0  0  0
   -3.9350   -3.0967   -0.8014 H   0  0  0  0  0  0  0  0  0  0  0  0
    3.5345   -2.0991   -2.0895 C   0  0  0  0  0  0  0  0  0  0  0  0
    2.9800   -1.3882   -2.7330 H   0  0  0  0  0  0  0  0  0  0  0  0
    2.8004   -2.8024   -1.6478 H   0  0  0  0  0  0  0  0  0  0  0  0
    4.2243   -2.6860   -2.7287 H   0  0  0  0  0  0  0  0  0  0  0  0
   -1.2206   -3.4160   -1.0442 C   0  0  0  0  0  0  0  0  0  0  0  0
   -0.7019   -2.7614   -1.7780 H   0  0  0  0  0  0  0  0  0  0  0  0
   -1.9025   -4.0842   -1.6025 H   0  0  0  0  0  0  0  0  0  0  0  0
   -0.4424   -4.0405   -0.5585 H   0  0  0  0  0  0  0  0  0  0  0  0
   -5.5732   -1.4837    0.7005 C   0  0  0  0  0  0  0  0  0  0  0  0
   -6.0525   -2.3066    0.1360 H   0  0  0  0  0  0  0  0  0  0  0  0
   -5.7553   -0.5347    0.1510 H   0  0  0  0  0  0  0  0  0  0  0  0
   -6.0678   -1.3942    1.6880 H   0  0  0  0  0  0  0  0  0  0  0  0
   -1.1885   -0.0714    2.7710 C   0  0  0  0  0  0  0  0  0  0  0  0
   -0.4930   -0.6402    3.4227 H   0  0  0  0  0  0  0  0  0  0  0  0
   -1.8740    0.5030    3.4211 H   0  0  0  0  0  0  0  0  0  0  0  0
   -0.5751    0.6595    2.2020 H   0  0  0  0  0  0  0  0  0  0  0  0
    2.0727    2.6502   -0.1246 C   0  0  0  0  0  0  0  0  0  0  0  0
    0.8483    3.4028    1.8507 C   0  0  0  0  0  0  0  0  0  0  0  0
    0.1214    4.0874    2.3119 H   0  0  0  0  0  0  0  0  0  0  0  0
    2.4130    1.5287    2.0580 C   0  0  0  0  0  0  0  0  0  0  0  0
    1.5053    2.4439    2.6284 C   0  0  0  0  0  0  0  0  0  0  0  0
    1.3202    2.3950    3.7134 H   0  0  0  0  0  0  0  0  0  0  0  0
    2.4500    2.8003   -1.5725 C   0  0  0  0  0  0  0  0  0  0  0  0
    3.5534    2.8157   -1.6895 H   0  0  0  0  0  0  0  0  0  0  0  0
    2.0285    3.7301   -1.9985 H   0  0  0  0  0  0  0  0  0  0  0  0
    2.0762    1.9454   -2.1726 H   0  0  0  0  0  0  0  0  0  0  0  0
    3.1500    0.5661    2.9573 C   0  0  0  0  0  0  0  0  0  0  0  0
    3.5350    1.0957    3.8521 H   0  0  0  0  0  0  0  0  0  0  0  0
    4.0148    0.0951    2.4526 H   0  0  0  0  0  0  0  0  0  0  0  0
    2.4878   -0.2450    3.3237 H   0  0  0  0  0  0  0  0  0  0  0  0
  2  4  1  0  0  0  0
  2 27  1  0  0  0  0
  3  5  1  0  0  0  0
  4  9  1  0  0  0  0
  5 27  2  0  0  0  0
  5  6  1  0  0  0  0
  7  1  1  6  0  0  0
  7  3  1  0  0  0  0
  7  2  1  0  0  0  0
  8 10  1  0  0  0  0
  9 43  1  0  0  0  0
 10 50  1  0  0  0  0
 11 48  2  0  0  0  0
 12 11  1  0  0  0  0
 13 19  1  0  0  0  0
 14  8  2  0  0  0  0
 14  3  1  0  0  0  0
 15 16  1  0  0  0  0
 15 17  1  0  0  0  0
 18 15  1  0  0  0  0
 19  9  2  0  0  0  0
 19 20  1  0  0  0  0
 21 14  1  0  0  0  0
 21 15  1  0  0  0  0
 22 21  1  0  0  0  0
 22 24  1  0  0  0  0
 23 22  1  0  0  0  0
 25 22  1  0  0  0  0
 26  4  2  0  0  0  0
 27 28  1  0  0  0  0
 29 26  1  0  0  0  0
 29 13  2  0  0  0  0
 30 29  1  0  0  0  0
 31 33  1  0  0  0  0
 31 21  1  0  0  0  0
 32 31  1  0  0  0  0
 34 31  1  0  0  0  0
 35 38  1  0  0  0  0
 35 26  1  0  0  0  0
 36 35  1  0  0  0  0
 37 35  1  0  0  0  0
 39 13  1  0  0  0  0
 39 42  1  0  0  0  0
 40 39  1  0  0  0  0
 41 39  1  0  0  0  0
 43 45  1  0  0  0  0
 43 44  1  0  0  0  0
 46 43  1  0  0  0  0
 47 11  1  0  0  0  0
 47 10  2  0  0  0  0
 48 49  1  0  0  0  0
 48 51  1  0  0  0  0
 50 51  2  0  0  0  0
 50 57  1  0  0  0  0
 51 52  1  0  0  0  0
 53 47  1  0  0  0  0
 54 53  1  0  0  0  0
 55 53  1  0  0  0  0
 56 53  1  0  0  0  0
 57 60  1  0  0  0  0
 57 58  1  0  0  0  0
 59 57  1  0  0  0  0
M  END
