1
 OpenBabel05122313063D

 27 28  0  0  0  0  0  0  0  0999 V2000
    2.2450    0.6456   -0.2003 S   0  0  0  0  0  0  0  0  0  0  0  0
    4.8109    0.4643    1.4409 S   0  0  0  0  0  0  0  0  0  0  0  0
    2.4928    2.4223   -0.2241 C   0  0  0  0  0  0  0  0  0  0  0  0
    1.8376    3.2830    0.6746 C   0  0  0  0  0  0  0  0  0  0  0  0
    2.1275    4.6527    0.6404 C   0  0  0  0  0  0  0  0  0  0  0  0
    3.0511    5.1593   -0.2903 C   0  0  0  0  0  0  0  0  0  0  0  0
    3.6926    4.2945   -1.1891 C   0  0  0  0  0  0  0  0  0  0  0  0
    3.4170    2.9183   -1.1586 C   0  0  0  0  0  0  0  0  0  0  0  0
    3.0291    0.2597    1.4501 C   0  0  0  0  0  0  0  0  0  0  0  0
    5.3799   -0.8996    0.4435 C   0  0  0  0  0  0  0  0  0  0  0  0
    4.5609   -1.9426   -0.0332 C   0  0  0  0  0  0  0  0  0  0  0  0
    5.1317   -2.9697   -0.8016 C   0  0  0  0  0  0  0  0  0  0  0  0
    6.5029   -2.9757   -1.0966 C   0  0  0  0  0  0  0  0  0  0  0  0
    7.3143   -1.9334   -0.6187 C   0  0  0  0  0  0  0  0  0  0  0  0
    6.7596   -0.8967    0.1421 C   0  0  0  0  0  0  0  0  0  0  0  0
    1.0910    2.8835    1.3754 H   0  0  0  0  0  0  0  0  0  0  0  0
    1.6161    5.3330    1.3379 H   0  0  0  0  0  0  0  0  0  0  0  0
    3.2687    6.2377   -0.3153 H   0  0  0  0  0  0  0  0  0  0  0  0
    4.4173    4.6884   -1.9172 H   0  0  0  0  0  0  0  0  0  0  0  0
    3.9214    2.2255   -1.8477 H   0  0  0  0  0  0  0  0  0  0  0  0
    2.6848   -0.7673    1.6856 H   0  0  0  0  0  0  0  0  0  0  0  0
    2.6272    0.9666    2.1998 H   0  0  0  0  0  0  0  0  0  0  0  0
    3.4808   -1.9763    0.1735 H   0  0  0  0  0  0  0  0  0  0  0  0
    4.4814   -3.7773   -1.1710 H   0  0  0  0  0  0  0  0  0  0  0  0
    6.9386   -3.7869   -1.6986 H   0  0  0  0  0  0  0  0  0  0  0  0
    8.3917   -1.9214   -0.8436 H   0  0  0  0  0  0  0  0  0  0  0  0
    7.3970   -0.0759    0.5064 H   0  0  0  0  0  0  0  0  0  0  0  0
  1  9  1  0  0  0  0
  2  9  1  0  0  0  0
  3  1  1  0  0  0  0
  3  4  1  0  0  0  0
  4 16  1  0  0  0  0
  5  4  2  0  0  0  0
  5 17  1  0  0  0  0
  6  5  1  0  0  0  0
  7  8  1  0  0  0  0
  7  6  2  0  0  0  0
  8  3  2  0  0  0  0
  9 21  1  0  0  0  0
  9 22  1  0  0  0  0
 10  2  1  0  0  0  0
 11 23  1  0  0  0  0
 11 10  2  0  0  0  0
 12 11  1  0  0  0  0
 13 12  2  0  0  0  0
 13 14  1  0  0  0  0
 14 15  2  0  0  0  0
 15 10  1  0  0  0  0
 15 27  1  0  0  0  0
 18  6  1  0  0  0  0
 19  7  1  0  0  0  0
 20  8  1  0  0  0  0
 24 12  1  0  0  0  0
 25 13  1  0  0  0  0
 26 14  1  0  0  0  0
M  END
