1
 OpenBabel05122313063D

 15 15  0  0  0  0  0  0  0  0999 V2000
   -1.7349    0.7673   -1.2066 S   0  0  0  0  0  1  0  0  0  0  0  0
   -3.0865    0.4025   -0.1264 C   0  0  0  0  0  0  0  0  0  0  0  0
   -4.4207    0.4732   -0.6261 C   0  0  0  0  0  0  0  0  0  0  0  0
   -5.4792    0.1469    0.2412 C   0  0  0  0  0  0  0  0  0  0  0  0
   -5.2600   -0.2407    1.5734 C   0  0  0  0  0  0  0  0  0  0  0  0
   -3.9463   -0.2950    2.0638 C   0  0  0  0  0  0  0  0  0  0  0  0
   -2.8732    0.0312    1.2239 C   0  0  0  0  0  0  0  0  0  0  0  0
   -4.6741    0.8739   -2.0529 C   0  0  0  0  0  0  0  0  0  0  0  0
   -1.8363    0.0015    1.6010 H   0  0  0  0  0  0  0  0  0  0  0  0
   -4.2750    1.8900   -2.2599 H   0  0  0  0  0  0  0  0  0  0  0  0
   -6.5089    0.1953   -0.1489 H   0  0  0  0  0  0  0  0  0  0  0  0
   -6.1112   -0.4924    2.2235 H   0  0  0  0  0  0  0  0  0  0  0  0
   -4.1434    0.1960   -2.7557 H   0  0  0  0  0  0  0  0  0  0  0  0
   -3.7516   -0.5850    3.1082 H   0  0  0  0  0  0  0  0  0  0  0  0
   -5.7545    0.8640   -2.2944 H   0  0  0  0  0  0  0  0  0  0  0  0
  1  2  1  0  0  0  0
  2  7  1  0  0  0  0
  3  2  2  0  0  0  0
  3  4  1  0  0  0  0
  4  5  2  0  0  0  0
  5  6  1  0  0  0  0
  5 12  1  0  0  0  0
  6 14  1  0  0  0  0
  7  9  1  0  0  0  0
  7  6  2  0  0  0  0
  8  3  1  0  0  0  0
 10  8  1  0  0  0  0
 11  4  1  0  0  0  0
 13  8  1  0  0  0  0
 15  8  1  0  0  0  0
M  END
