1
 OpenBabel05122313063D

 30 30  0  0  1  0  0  0  0  0999 V2000
    2.1219   -1.3600    1.0408 S   0  0  0  0  0  1  0  0  0  0  0  0
    0.0111    3.3321    0.7796 O   0  5  0  0  0  0  0  0  0  0  0  0
   -0.9790    2.7347    0.1958 N   0  3  0  0  0  0  0  0  0  0  0  0
    0.2762    0.6526    2.1646 N   0  0  0  0  0  0  0  0  0  0  0  0
    1.1985    1.1443    1.2838 N   0  0  0  0  0  0  0  0  0  0  0  0
    3.1920    0.9696    0.1242 N   0  0  0  0  0  0  0  0  0  0  0  0
   -1.4678    3.2682   -0.9720 C   0  0  0  0  0  0  0  0  0  0  0  0
   -2.5469    2.7055   -1.6350 C   0  0  0  0  0  0  0  0  0  0  0  0
   -3.1615    1.5580   -1.1097 C   0  0  0  0  0  0  0  0  0  0  0  0
   -4.0036    1.0770   -1.6257 H   0  0  0  0  0  0  0  0  0  0  0  0
   -2.6623    1.0208    0.0771 C   0  0  0  0  0  0  0  0  0  0  0  0
   -1.5489    1.5864    0.7282 C   0  0  0  0  0  0  0  0  0  0  0  0
   -0.9797    0.9305    1.9420 C   0  0  0  0  0  0  0  0  0  0  0  0
    2.1949    0.3623    0.8147 C   0  0  2  0  0  3  0  0  0  0  0  0
    4.0438    0.2253   -0.7943 C   0  0  0  0  0  0  0  0  0  0  0  0
    5.0905    0.5779   -0.7035 H   0  0  0  0  0  0  0  0  0  0  0  0
    3.6867    0.3716   -1.8373 H   0  0  0  0  0  0  0  0  0  0  0  0
    3.9882   -0.8485   -0.5459 H   0  0  0  0  0  0  0  0  0  0  0  0
    3.1622    2.4136   -0.0700 C   0  0  0  0  0  0  0  0  0  0  0  0
   -1.9604    0.3404    2.9200 C   0  0  0  0  0  0  0  0  0  0  0  0
   -0.9210    4.1613   -1.2982 H   0  0  0  0  0  0  0  0  0  0  0  0
   -2.8913    3.1685   -2.5703 H   0  0  0  0  0  0  0  0  0  0  0  0
   -3.0788    0.0874    0.4806 H   0  0  0  0  0  0  0  0  0  0  0  0
    0.9799    2.1472    0.9620 H   0  0  0  0  0  0  0  0  0  0  0  0
    4.1506    2.7469   -0.4352 H   0  0  0  0  0  0  0  0  0  0  0  0
    2.9455    2.9337    0.8831 H   0  0  0  0  0  0  0  0  0  0  0  0
    2.3852    2.6955   -0.8152 H   0  0  0  0  0  0  0  0  0  0  0  0
   -2.7761    1.0469    3.1688 H   0  0  0  0  0  0  0  0  0  0  0  0
   -1.4185    0.0462    3.8361 H   0  0  0  0  0  0  0  0  0  0  0  0
   -2.4108   -0.5800    2.4874 H   0  0  0  0  0  0  0  0  0  0  0  0
  3 12  1  0  0  0  0
  3  2  1  0  0  0  0
  5  4  1  0  0  0  0
  6 14  1  0  0  0  0
  7  3  2  0  0  0  0
  8  9  2  0  0  0  0
  8  7  1  0  0  0  0
  9 11  1  0  0  0  0
 10  9  1  0  0  0  0
 11 23  1  0  0  0  0
 11 12  2  0  0  0  0
 12 13  1  0  0  0  0
 13  4  2  0  0  0  0
 13 20  1  0  0  0  0
 14  1  1  6  0  0  0
 14  5  1  0  0  0  0
 15 16  1  0  0  0  0
 15 18  1  0  0  0  0
 15  6  1  0  0  0  0
 17 15  1  0  0  0  0
 19  6  1  0  0  0  0
 19 26  1  0  0  0  0
 20 28  1  0  0  0  0
 20 29  1  0  0  0  0
 21  7  1  0  0  0  0
 22  8  1  0  0  0  0
 24  5  1  0  0  0  0
 25 19  1  0  0  0  0
 27 19  1  0  0  0  0
 30 20  1  0  0  0  0
M  CHG  2   2  -1   3   1
M  END
