1
 OpenBabel05122313063D

 39 39  0  0  0  0  0  0  0  0999 V2000
   -1.3839    4.2262   -1.1621 S   0  0  0  0  0  1  0  0  0  0  0  0
  -14.0784    0.6868   -3.1588 S   0  0  0  0  0  0  0  0  0  0  0  0
   -6.5132   -5.8910    5.5284 S   0  0  0  0  0  0  0  0  0  0  0  0
   -7.0786   -4.0465    3.7191 N   0  0  0  0  0  0  0  0  0  0  0  0
   -7.9984   -4.5136    3.7563 H   0  0  0  0  0  0  0  0  0  0  0  0
   -3.9098    4.0844   -2.0007 N   0  0  0  0  0  4  0  0  0  0  0  0
   -4.8406    3.6589   -1.9776 H   0  0  0  0  0  0  0  0  0  0  0  0
   -3.6694    4.8358   -2.6430 H   0  0  0  0  0  0  0  0  0  0  0  0
   -3.3212    2.5223   -0.4133 N   0  0  0  0  0  0  0  0  0  0  0  0
   -2.6116    2.1286    0.2693 H   0  0  0  0  0  0  0  0  0  0  0  0
   -4.5726    2.0142   -0.4844 N   0  0  0  0  0  0  0  0  0  0  0  0
   -6.8236   -3.0051    2.9250 N   0  0  0  0  0  0  0  0  0  0  0  0
  -10.7229    0.0573   -1.2709 N   0  0  0  0  0  0  0  0  0  0  0  0
   -8.4560    0.1328   -0.4253 C   0  0  0  0  0  0  0  0  0  0  0  0
   -7.7676   -2.5483    2.1573 C   0  0  0  0  0  0  0  0  0  0  0  0
   -8.7777   -3.0156    2.1569 H   0  0  0  0  0  0  0  0  0  0  0  0
   -4.8225    1.0003    0.2900 C   0  0  0  0  0  0  0  0  0  0  0  0
   -4.0311    0.5941    0.9549 H   0  0  0  0  0  0  0  0  0  0  0  0
   -6.1300    0.3493    0.3242 C   0  0  0  0  0  0  0  0  0  0  0  0
   -6.1159   -4.5879    4.5647 C   0  0  0  0  0  0  0  0  0  0  0  0
   -9.5462    0.6089   -1.2734 C   0  0  0  0  0  0  0  0  0  0  0  0
   -9.3284    1.4777   -1.9342 H   0  0  0  0  0  0  0  0  0  0  0  0
   -7.5590   -1.4114    1.2637 C   0  0  0  0  0  0  0  0  0  0  0  0
   -8.6196   -0.9655    0.4539 C   0  0  0  0  0  0  0  0  0  0  0  0
   -9.5966   -1.4693    0.4945 H   0  0  0  0  0  0  0  0  0  0  0  0
   -6.3128   -0.7432    1.1904 C   0  0  0  0  0  0  0  0  0  0  0  0
   -5.4834   -1.0910    1.8232 H   0  0  0  0  0  0  0  0  0  0  0  0
   -2.9626    3.5677   -1.1984 C   0  0  0  0  0  0  0  0  0  0  0  0
  -11.6688    0.5500   -2.0750 N   0  0  0  0  0  0  0  0  0  0  0  0
  -11.5087    1.3534   -2.7029 H   0  0  0  0  0  0  0  0  0  0  0  0
   -7.2092    0.7823   -0.4824 C   0  0  0  0  0  0  0  0  0  0  0  0
   -7.0585    1.6374   -1.1577 H   0  0  0  0  0  0  0  0  0  0  0  0
   -4.9138   -3.9752    4.5129 N   0  0  0  0  0  0  0  0  0  0  0  0
   -4.7771   -3.1827    3.8810 H   0  0  0  0  0  0  0  0  0  0  0  0
   -4.1675   -4.3277    5.1071 H   0  0  0  0  0  0  0  0  0  0  0  0
  -13.1551   -1.0361   -1.3051 N   0  0  0  0  0  0  0  0  0  0  0  0
  -12.3897   -1.3680   -0.7137 H   0  0  0  0  0  0  0  0  0  0  0  0
  -14.0741   -1.4715   -1.2998 H   0  0  0  0  0  0  0  0  0  0  0  0
  -12.9507    0.0152   -2.1285 C   0  0  0  0  0  0  0  0  0  0  0  0
  2 39  2  0  0  0  0
  4  5  1  0  0  0  0
  4 20  1  0  0  0  0
  6  7  1  0  0  0  0
  6 28  2  0  0  0  0
  8  6  1  0  0  0  0
  9 10  1  0  0  0  0
 11  9  1  0  0  0  0
 11 17  2  0  0  0  0
 12  4  1  0  0  0  0
 14 24  1  0  0  0  0
 15 12  2  0  0  0  0
 16 15  1  0  0  0  0
 17 19  1  0  0  0  0
 17 18  1  0  0  0  0
 19 26  2  0  0  0  0
 20  3  2  0  0  0  0
 21 13  2  0  0  0  0
 21 14  1  0  0  0  0
 22 21  1  0  0  0  0
 23 15  1  0  0  0  0
 24 25  1  0  0  0  0
 24 23  2  0  0  0  0
 26 23  1  0  0  0  0
 26 27  1  0  0  0  0
 28  1  1  0  0  0  0
 28  9  1  0  0  0  0
 29 13  1  0  0  0  0
 30 29  1  0  0  0  0
 31 14  2  0  0  0  0
 31 19  1  0  0  0  0
 32 31  1  0  0  0  0
 33 20  1  0  0  0  0
 33 35  1  0  0  0  0
 34 33  1  0  0  0  0
 36 38  1  0  0  0  0
 36 37  1  0  0  0  0
 39 29  1  0  0  0  0
 39 36  1  0  0  0  0
M  END
