1
 OpenBabel05122313063D

 11 11  0  0  0  0  0  0  0  0999 V2000
    1.2459   -2.9729   -0.2186 S   0  0  0  0  0  1  0  0  0  0  0  0
    5.7628   -1.9813   -0.1158 N   0  0  0  0  0  0  0  0  0  0  0  0
    2.9538   -2.5243   -0.1737 C   0  0  0  0  0  0  0  0  0  0  0  0
    3.9188   -3.5600   -0.2270 C   0  0  0  0  0  0  0  0  0  0  0  0
    3.5966   -4.6106   -0.2923 H   0  0  0  0  0  0  0  0  0  0  0  0
    5.2805   -3.2350   -0.1953 C   0  0  0  0  0  0  0  0  0  0  0  0
    6.0309   -4.0465   -0.2370 H   0  0  0  0  0  0  0  0  0  0  0  0
    4.8441   -1.0009   -0.0658 C   0  0  0  0  0  0  0  0  0  0  0  0
    5.2314    0.0329   -0.0005 H   0  0  0  0  0  0  0  0  0  0  0  0
    3.4583   -1.2037   -0.0907 C   0  0  0  0  0  0  0  0  0  0  0  0
    2.7727   -0.3436   -0.0460 H   0  0  0  0  0  0  0  0  0  0  0  0
  1  3  1  0  0  0  0
  2  8  1  0  0  0  0
  3 10  1  0  0  0  0
  4  6  1  0  0  0  0
  4  3  2  0  0  0  0
  5  4  1  0  0  0  0
  6  2  2  0  0  0  0
  7  6  1  0  0  0  0
  8  9  1  0  0  0  0
 10  8  2  0  0  0  0
 10 11  1  0  0  0  0
M  END
