3
 OpenBabel05122313063D

 15 14  0  0  0  0  0  0  0  0999 V2000
   -1.1084    1.2530    1.6853 S   0  0  0  0  0  1  0  0  0  0  0  0
   -2.5344   -0.0525   -0.9490 S   0  0  0  0  0  0  0  0  0  0  0  0
   -0.6602   -2.1029    0.9252 S   0  0  0  0  0  1  0  0  0  0  0  0
   -2.5641    2.0227    0.8976 C   0  0  0  0  0  0  0  0  0  0  0  0
   -3.4749    0.9913    0.2502 C   0  0  0  0  0  0  0  0  0  0  0  0
   -3.0731   -1.7208   -0.4126 C   0  0  0  0  0  0  0  0  0  0  0  0
   -2.4852   -2.0845    0.9378 C   0  0  0  0  0  0  0  0  0  0  0  0
   -3.1178    2.5745    1.6849 H   0  0  0  0  0  0  0  0  0  0  0  0
   -2.1955    2.7489    0.1433 H   0  0  0  0  0  0  0  0  0  0  0  0
   -4.2982    1.4702   -0.3197 H   0  0  0  0  0  0  0  0  0  0  0  0
   -3.9129    0.3195    1.0147 H   0  0  0  0  0  0  0  0  0  0  0  0
   -4.1836   -1.7383   -0.4228 H   0  0  0  0  0  0  0  0  0  0  0  0
   -2.7013   -2.3927   -1.2119 H   0  0  0  0  0  0  0  0  0  0  0  0
   -2.8222   -3.0953    1.2489 H   0  0  0  0  0  0  0  0  0  0  0  0
   -2.8030   -1.3608    1.7228 H   0  0  0  0  0  0  0  0  0  0  0  0
  2  6  1  0  0  0  0
  2  5  1  0  0  0  0
  3  7  1  0  0  0  0
  4  8  1  0  0  0  0
  4  1  1  0  0  0  0
  5  4  1  0  0  0  0
  5 11  1  0  0  0  0
  6  7  1  0  0  0  0
  7 14  1  0  0  0  0
  7 15  1  0  0  0  0
  9  4  1  0  0  0  0
 10  5  1  0  0  0  0
 12  6  1  0  0  0  0
 13  6  1  0  0  0  0
M  END
