1
 OpenBabel05122313063D

 10 12  0  0  1  0  0  0  0  0999 V2000
   -2.3493   -1.1886   -0.6768 S   0  0  0  0  0  0  0  0  0  0  0  0
   -1.7318    1.1801    1.1647 S   0  0  0  0  0  0  0  0  0  0  0  0
   -2.7364    0.2476    0.2319 C   0  0  0  0  0  0  0  0  0  0  0  0
   -4.1100    0.6018    0.1020 N   0  0  0  0  0  0  0  0  0  0  0  0
   -5.0543   -0.0193   -0.7102 C   0  0  2  0  0  0  0  0  0  0  0  0
   -4.7728    1.6397    0.7660 C   0  0  1  0  0  0  0  0  0  0  0  0
   -6.0586   -0.1024   -1.7922 C   0  0  0  0  0  0  0  0  0  0  0  0
   -6.2818    0.6415   -0.5839 C   0  0  2  0  0  0  0  0  0  0  0  0
   -6.1119    1.6545    0.4085 C   0  0  1  0  0  0  0  0  0  0  0  0
   -5.7341    2.2328    1.6927 C   0  0  0  0  0  0  0  0  0  0  0  0
  1  3  1  0  0  0  0
  3  2  2  0  0  0  0
  4  3  1  0  0  0  0
  4  6  1  0  0  0  0
  5  7  1  6  0  0  0
  5  8  1  0  0  0  0
  5  4  1  0  0  0  0
  6 10  1  1  0  0  0
  8  7  1  6  0  0  0
  8  9  1  0  0  0  0
  9  6  1  0  0  0  0
  9 10  1  1  0  0  0
M  END
