1
 OpenBabel05122313063D

 34 36  0  0  1  0  0  0  0  0999 V2000
   -1.9827   -0.9364   -2.3204 S   0  0  0  0  0  1  0  0  0  0  0  0
   -4.5538    3.2320    2.4973 S   0  0  0  0  0  0  0  0  0  0  0  0
   -3.9802   -0.3736   -0.5450 N   0  0  0  0  0  0  0  0  0  0  0  0
   -4.2865    0.3698    0.1077 H   0  0  0  0  0  0  0  0  0  0  0  0
   -2.2838    1.1437   -0.6452 N   0  0  0  0  0  0  0  0  0  0  0  0
   -1.3908    1.5438   -1.0636 H   0  0  0  0  0  0  0  0  0  0  0  0
   -2.9411    1.8172    0.3235 N   0  0  0  0  0  0  0  0  0  0  0  0
   -4.8144   -1.5003   -0.6647 C   0  0  0  0  0  0  0  0  0  0  0  0
   -4.3403   -2.7656   -1.0055 C   0  0  0  0  0  0  0  0  0  0  0  0
   -3.2735   -2.9049   -1.2211 H   0  0  0  0  0  0  0  0  0  0  0  0
   -5.2257   -3.8690   -1.0606 C   0  0  0  0  0  0  0  0  0  0  0  0
   -4.8249   -4.8567   -1.3327 H   0  0  0  0  0  0  0  0  0  0  0  0
   -6.5701   -3.7188   -0.7612 C   0  0  0  0  0  0  0  0  0  0  0  0
   -7.2541   -4.5802   -0.7948 H   0  0  0  0  0  0  0  0  0  0  0  0
   -8.4687   -2.2613   -0.0827 C   0  0  0  0  0  0  0  0  0  0  0  0
   -9.1308   -3.1406   -0.1112 H   0  0  0  0  0  0  0  0  0  0  0  0
   -8.9708   -1.0140    0.2539 C   0  0  0  0  0  0  0  0  0  0  0  0
  -10.0369   -0.8934    0.4979 H   0  0  0  0  0  0  0  0  0  0  0  0
   -8.1093    0.1132    0.2740 C   0  0  0  0  0  0  0  0  0  0  0  0
   -8.5111    1.1065    0.5240 H   0  0  0  0  0  0  0  0  0  0  0  0
   -6.7623   -0.0256   -0.0313 C   0  0  0  0  0  0  0  0  0  0  0  0
   -6.1300    0.8754   -0.0331 H   0  0  0  0  0  0  0  0  0  0  0  0
   -6.2105   -1.2983   -0.3631 C   0  0  0  0  0  0  0  0  0  0  0  0
   -7.0906   -2.4419   -0.4016 C   0  0  0  0  0  0  0  0  0  0  0  0
   -2.7946   -0.0303   -1.0929 C   0  0  2  0  0  3  0  0  0  0  0  0
   -2.3868    2.9100    0.7693 C   0  0  0  0  0  0  0  0  0  0  0  0
   -1.4150    3.2627    0.3656 H   0  0  0  0  0  0  0  0  0  0  0  0
   -3.0189    3.6974    1.7922 C   0  0  0  0  0  0  0  0  0  0  0  0
   -2.5501    4.8839    2.3581 C   0  0  0  0  0  0  0  0  0  0  0  0
   -1.6008    5.3463    2.0543 H   0  0  0  0  0  0  0  0  0  0  0  0
   -3.4247    5.4080    3.3486 C   0  0  0  0  0  0  0  0  0  0  0  0
   -3.2382    6.3316    3.9129 H   0  0  0  0  0  0  0  0  0  0  0  0
   -4.5499    4.6202    3.5289 C   0  0  0  0  0  0  0  0  0  0  0  0
   -5.3838    4.7823    4.2233 H   0  0  0  0  0  0  0  0  0  0  0  0
  2 33  1  0  0  0  0
  3  4  1  0  0  0  0
  5  7  1  0  0  0  0
  6  5  1  0  0  0  0
  7 26  2  0  0  0  0
  8  3  1  0  0  0  0
  8 23  1  0  0  0  0
  9  8  2  0  0  0  0
 10  9  1  0  0  0  0
 11  9  1  0  0  0  0
 11 13  2  0  0  0  0
 12 11  1  0  0  0  0
 13 24  1  0  0  0  0
 14 13  1  0  0  0  0
 15 17  1  0  0  0  0
 16 15  1  0  0  0  0
 17 19  2  0  0  0  0
 17 18  1  0  0  0  0
 19 20  1  0  0  0  0
 21 19  1  0  0  0  0
 22 21  1  0  0  0  0
 23 21  2  0  0  0  0
 24 23  1  0  0  0  0
 24 15  2  0  0  0  0
 25  1  1  6  0  0  0
 25  5  1  0  0  0  0
 25  3  1  0  0  0  0
 26 28  1  0  0  0  0
 27 26  1  0  0  0  0
 28 29  2  0  0  0  0
 28  2  1  0  0  0  0
 29 31  1  0  0  0  0
 30 29  1  0  0  0  0
 31 33  2  0  0  0  0
 31 32  1  0  0  0  0
 33 34  1  0  0  0  0
M  END
