1
 OpenBabel05122313063D

 14 14  0  0  1  0  0  0  0  0999 V2000
    1.9432   -1.1890    0.2365 S   0  0  0  0  0  1  0  0  0  0  0  0
    6.8825   -1.6870   -0.0223 O   0  0  0  0  0  0  0  0  0  0  0  0
    4.6100   -1.3392    0.0922 N   0  0  0  0  0  0  0  0  0  0  0  0
    4.4485   -2.3525    0.1204 H   0  0  0  0  0  0  0  0  0  0  0  0
    5.0004    1.3572    0.0186 N   0  0  0  0  0  0  0  0  0  0  0  0
    3.7761    0.8055    0.0952 N   0  0  0  0  0  0  0  0  0  0  0  0
    2.9595    1.4974    0.1125 H   0  0  0  0  0  0  0  0  0  0  0  0
    3.5047   -0.5253    0.1358 C   0  0  2  0  0  3  0  0  0  0  0  0
    5.9458   -0.9030    0.0130 C   0  0  0  0  0  0  0  0  0  0  0  0
    6.0514    0.5777   -0.0209 C   0  0  0  0  0  0  0  0  0  0  0  0
    7.4158    1.1765   -0.1047 C   0  0  0  0  0  0  0  0  0  0  0  0
    7.3448    2.2784   -0.1237 H   0  0  0  0  0  0  0  0  0  0  0  0
    7.9416    0.8157   -1.0128 H   0  0  0  0  0  0  0  0  0  0  0  0
    8.0344    0.8523    0.7575 H   0  0  0  0  0  0  0  0  0  0  0  0
  2  9  2  0  0  0  0
  3  4  1  0  0  0  0
  3  8  1  0  0  0  0
  5  6  1  0  0  0  0
  6  7  1  0  0  0  0
  6  8  1  0  0  0  0
  8  1  1  1  0  0  0
  9  3  1  0  0  0  0
 10  9  1  0  0  0  0
 10  5  2  0  0  0  0
 11 10  1  0  0  0  0
 11 14  1  0  0  0  0
 12 11  1  0  0  0  0
 13 11  1  0  0  0  0
M  END
