1
 OpenBabel05122313063D

 14 13  0  0  0  0  0  0  0  0999 V2000
    1.5566    0.7510   -1.7882 S   0  0  0  0  0  1  0  0  0  0  0  0
    2.2660    2.6996   -1.1701 Si  0  0  0  0  0  0  0  0  0  0  0  0
    1.2040    4.1011   -1.8583 C   0  0  0  0  0  0  0  0  0  0  0  0
    4.0350    2.8565   -1.8359 C   0  0  0  0  0  0  0  0  0  0  0  0
    2.2964    2.8944    0.7173 C   0  0  0  0  0  0  0  0  0  0  0  0
    0.1547    3.9548   -1.5301 H   0  0  0  0  0  0  0  0  0  0  0  0
    1.5697    5.0799   -1.4811 H   0  0  0  0  0  0  0  0  0  0  0  0
    1.2237    4.1231   -2.9657 H   0  0  0  0  0  0  0  0  0  0  0  0
    4.0595    2.6797   -2.9305 H   0  0  0  0  0  0  0  0  0  0  0  0
    4.4369    3.8734   -1.6419 H   0  0  0  0  0  0  0  0  0  0  0  0
    4.7049    2.1176   -1.3519 H   0  0  0  0  0  0  0  0  0  0  0  0
    2.8433    2.0717    1.2164 H   0  0  0  0  0  0  0  0  0  0  0  0
    2.7885    3.8530    0.9873 H   0  0  0  0  0  0  0  0  0  0  0  0
    1.2596    2.9248    1.1100 H   0  0  0  0  0  0  0  0  0  0  0  0
  1  2  1  0  0  0  0
  2  5  1  0  0  0  0
  3  6  1  0  0  0  0
  3  7  1  0  0  0  0
  3  2  1  0  0  0  0
  4 10  1  0  0  0  0
  4 11  1  0  0  0  0
  4  2  1  0  0  0  0
  5 13  1  0  0  0  0
  5 14  1  0  0  0  0
  5 12  1  0  0  0  0
  8  3  1  0  0  0  0
  9  4  1  0  0  0  0
M  END
