1
 OpenBabel05122313063D

 20 20  0  0  0  0  0  0  0  0999 V2000
   -1.7733   -1.4865    2.2268 S   0  0  0  0  0  1  0  0  0  0  0  0
    0.4324    0.0208    2.5927 N   0  0  0  0  0  4  0  0  0  0  0  0
    1.4634    0.1093    2.4739 H   0  0  0  0  0  0  0  0  0  0  0  0
   -0.1974    0.8326    2.6429 H   0  0  0  0  0  0  0  0  0  0  0  0
    0.7631   -2.1935    1.9451 N   0  0  0  0  0  0  0  0  0  0  0  0
    0.2536   -3.0282    1.6460 H   0  0  0  0  0  0  0  0  0  0  0  0
    2.8080   -1.0273    1.9363 N   0  0  0  0  0  0  0  0  0  0  0  0
   -0.0969   -1.1596    2.2713 C   0  0  0  0  0  0  0  0  0  0  0  0
    2.1221   -2.1446    1.6416 C   0  0  0  0  0  0  0  0  0  0  0  0
    2.7289   -3.2652    1.0213 C   0  0  0  0  0  0  0  0  0  0  0  0
    2.1366   -4.1600    0.7817 H   0  0  0  0  0  0  0  0  0  0  0  0
    4.0875   -3.1842    0.7225 C   0  0  0  0  0  0  0  0  0  0  0  0
    4.5946   -4.0347    0.2418 H   0  0  0  0  0  0  0  0  0  0  0  0
    4.8041   -2.0140    1.0319 C   0  0  0  0  0  0  0  0  0  0  0  0
    5.8737   -1.9249    0.7978 H   0  0  0  0  0  0  0  0  0  0  0  0
    4.1230   -0.9466    1.6400 C   0  0  0  0  0  0  0  0  0  0  0  0
    4.8052    0.3438    2.0011 C   0  0  0  0  0  0  0  0  0  0  0  0
    4.8043    0.4864    3.1015 H   0  0  0  0  0  0  0  0  0  0  0  0
    4.2511    1.1961    1.5594 H   0  0  0  0  0  0  0  0  0  0  0  0
    5.8493    0.3734    1.6388 H   0  0  0  0  0  0  0  0  0  0  0  0
  1  8  1  0  0  0  0
  2  4  1  0  0  0  0
  3  2  1  0  0  0  0
  5  8  1  0  0  0  0
  6  5  1  0  0  0  0
  8  2  2  0  0  0  0
  9  7  1  0  0  0  0
  9  5  1  0  0  0  0
 10  9  2  0  0  0  0
 11 10  1  0  0  0  0
 12 10  1  0  0  0  0
 12 14  2  0  0  0  0
 13 12  1  0  0  0  0
 14 16  1  0  0  0  0
 15 14  1  0  0  0  0
 16  7  2  0  0  0  0
 16 17  1  0  0  0  0
 17 18  1  0  0  0  0
 19 17  1  0  0  0  0
 20 17  1  0  0  0  0
M  END
