1
 OpenBabel05122313063D

 22 21  0  0  0  0  0  0  0  0999 V2000
    1.2480    0.5160   -0.9211 S   0  0  0  0  0  3  0  0  0  0  0  0
    0.6777    0.8561   -2.2816 O   0  0  0  0  0  1  0  0  0  0  0  0
    2.6621   -0.6192   -1.1707 C   0  0  0  0  0  0  0  0  0  0  0  0
    3.3772   -0.0538   -1.8037 H   0  0  0  0  0  0  0  0  0  0  0  0
    3.0736   -0.7849   -0.1536 H   0  0  0  0  0  0  0  0  0  0  0  0
    2.1826   -1.9079   -1.8291 C   0  0  0  0  0  0  0  0  0  0  0  0
    1.6958   -1.6568   -2.7952 H   0  0  0  0  0  0  0  0  0  0  0  0
    1.4036   -2.3662   -1.1809 H   0  0  0  0  0  0  0  0  0  0  0  0
    3.3307   -2.8947   -2.0487 C   0  0  0  0  0  0  0  0  0  0  0  0
    2.9650   -3.8236   -2.5291 H   0  0  0  0  0  0  0  0  0  0  0  0
    3.8067   -3.1774   -1.0879 H   0  0  0  0  0  0  0  0  0  0  0  0
    4.1176   -2.4655   -2.7027 H   0  0  0  0  0  0  0  0  0  0  0  0
    2.0698    2.0056   -0.2471 C   0  0  0  0  0  0  0  0  0  0  0  0
    2.5029    1.6694    0.7182 H   0  0  0  0  0  0  0  0  0  0  0  0
    2.8722    2.2532   -0.9730 H   0  0  0  0  0  0  0  0  0  0  0  0
    1.0534    3.1310   -0.0884 C   0  0  0  0  0  0  0  0  0  0  0  0
    0.5688    3.3134   -1.0705 H   0  0  0  0  0  0  0  0  0  0  0  0
    0.2544    2.7869    0.6042 H   0  0  0  0  0  0  0  0  0  0  0  0
    1.6992    4.4117    0.4426 C   0  0  0  0  0  0  0  0  0  0  0  0
    0.9452    5.2158    0.5531 H   0  0  0  0  0  0  0  0  0  0  0  0
    2.4886    4.7842   -0.2425 H   0  0  0  0  0  0  0  0  0  0  0  0
    2.1647    4.2478    1.4359 H   0  0  0  0  0  0  0  0  0  0  0  0
  1 13  1  0  0  0  0
  2  1  1  0  0  0  0
  3  1  1  0  0  0  0
  3  5  1  0  0  0  0
  4  3  1  0  0  0  0
  6  8  1  0  0  0  0
  6  3  1  0  0  0  0
  7  6  1  0  0  0  0
  9  6  1  0  0  0  0
  9 11  1  0  0  0  0
 10  9  1  0  0  0  0
 12  9  1  0  0  0  0
 13 16  1  0  0  0  0
 13 14  1  0  0  0  0
 15 13  1  0  0  0  0
 16 19  1  0  0  0  0
 16 18  1  0  0  0  0
 17 16  1  0  0  0  0
 19 20  1  0  0  0  0
 19 22  1  0  0  0  0
 21 19  1  0  0  0  0
M  END
