1
 OpenBabel05122313063D

 18 18  0  0  0  0  0  0  0  0999 V2000
    2.2882   -2.4195   -1.2513 S   0  0  0  0  0  1  0  0  0  0  0  0
    3.3150   -1.5582    0.4244 S   0  0  0  0  0  0  0  0  0  0  0  0
    4.7532   -1.8609    0.2493 O   0  0  0  0  0  0  0  0  0  0  0  0
    2.6290   -1.8950    1.7015 O   0  0  0  0  0  0  0  0  0  0  0  0
    3.0922    0.2328    0.1906 C   0  0  0  0  0  0  0  0  0  0  0  0
    2.4629    0.9685    1.2038 C   0  0  0  0  0  0  0  0  0  0  0  0
    2.1044    0.4474    2.1018 H   0  0  0  0  0  0  0  0  0  0  0  0
    2.2891    2.3484    1.0366 C   0  0  0  0  0  0  0  0  0  0  0  0
    1.7787    2.9242    1.8250 H   0  0  0  0  0  0  0  0  0  0  0  0
    2.7464    3.0059   -0.1252 C   0  0  0  0  0  0  0  0  0  0  0  0
    3.3948    2.2378   -1.1172 C   0  0  0  0  0  0  0  0  0  0  0  0
    3.7654    2.7351   -2.0276 H   0  0  0  0  0  0  0  0  0  0  0  0
    3.5769    0.8559   -0.9663 C   0  0  0  0  0  0  0  0  0  0  0  0
    4.0714    0.2570   -1.7451 H   0  0  0  0  0  0  0  0  0  0  0  0
    2.5331    4.4884   -0.2964 C   0  0  0  0  0  0  0  0  0  0  0  0
    3.0162    5.0617    0.5219 H   0  0  0  0  0  0  0  0  0  0  0  0
    1.4522    4.7410   -0.2711 H   0  0  0  0  0  0  0  0  0  0  0  0
    2.9465    4.8545   -1.2560 H   0  0  0  0  0  0  0  0  0  0  0  0
  1  2  1  0  0  0  0
  2  4  2  0  0  0  0
  3  2  2  0  0  0  0
  5  2  1  0  0  0  0
  5  6  1  0  0  0  0
  6  7  1  0  0  0  0
  8  6  2  0  0  0  0
  8  9  1  0  0  0  0
 10  8  1  0  0  0  0
 11 13  1  0  0  0  0
 11 10  2  0  0  0  0
 12 11  1  0  0  0  0
 13  5  2  0  0  0  0
 14 13  1  0  0  0  0
 15 17  1  0  0  0  0
 15 10  1  0  0  0  0
 15 16  1  0  0  0  0
 18 15  1  0  0  0  0
M  END
