1
 OpenBabel05122313063D

 17 17  0  0  0  0  0  0  0  0999 V2000
    0.7079    1.0558    1.3148 S   0  0  0  0  0  1  0  0  0  0  0  0
    2.6091    1.6329   -0.9979 S   0  0  0  0  0  0  0  0  0  0  0  0
    4.6165    0.3434    0.7390 N   0  0  0  0  0  0  0  0  0  0  0  0
    2.2274    1.0297    0.5119 C   0  0  0  0  0  0  0  0  0  0  0  0
    3.2811    0.2228    1.3108 C   0  0  0  0  0  0  0  0  0  0  0  0
    3.2851    0.5313    2.3717 H   0  0  0  0  0  0  0  0  0  0  0  0
    2.9551   -0.8403    1.2223 H   0  0  0  0  0  0  0  0  0  0  0  0
    4.7336   -0.0873   -0.5587 C   0  0  0  0  0  3  0  0  0  0  0  0
    3.9514   -0.7885   -0.8988 H   0  0  0  0  0  0  0  0  0  0  0  0
    5.9344    0.1493   -1.2547 C   0  0  0  0  0  0  0  0  0  0  0  0
    6.0443   -0.2661   -2.2656 H   0  0  0  0  0  0  0  0  0  0  0  0
    6.9387    0.9106   -0.6653 C   0  0  0  0  0  0  0  0  0  0  0  0
    7.8765    1.1114   -1.2040 H   0  0  0  0  0  0  0  0  0  0  0  0
    6.7450    1.4255    0.6390 C   0  0  0  0  0  0  0  0  0  0  0  0
    7.5069    2.0431    1.1329 H   0  0  0  0  0  0  0  0  0  0  0  0
    5.5677    1.1330    1.3085 C   0  0  0  0  0  0  0  0  0  0  0  0
    5.3425    1.4986    2.3200 H   0  0  0  0  0  0  0  0  0  0  0  0
  2  4  2  0  0  0  0
  3 16  1  0  0  0  0
  3  5  1  0  0  0  0
  4  5  1  0  0  0  0
  4  1  1  0  0  0  0
  5  6  1  0  0  0  0
  7  5  1  0  0  0  0
  8  3  1  0  0  0  0
  9  8  1  0  0  0  0
 10 12  2  0  0  0  0
 10  8  1  0  0  0  0
 11 10  1  0  0  0  0
 12 14  1  0  0  0  0
 13 12  1  0  0  0  0
 14 15  1  0  0  0  0
 14 16  2  0  0  0  0
 16 17  1  0  0  0  0
M  END
