1
 OpenBabel05122313063D

 20 20  0  0  0  0  0  0  0  0999 V2000
    1.2180   -0.4038    0.4587 S   0  0  1  0  0  3  0  0  0  0  0  0
    1.6449   -0.9323    1.7974 O   0  0  0  0  0  1  0  0  0  0  0  0
    1.3185    1.4045    0.4741 C   0  0  0  0  0  0  0  0  0  0  0  0
    2.5268   -0.8465   -0.7892 C   0  0  0  0  0  0  0  0  0  0  0  0
    3.8545   -0.3154   -0.3577 C   0  0  0  0  0  0  0  0  0  0  0  0
    4.5362   -0.8953    0.7344 C   0  0  0  0  0  0  0  0  0  0  0  0
    5.7659   -0.3723    1.1563 C   0  0  0  0  0  0  0  0  0  0  0  0
    6.3318    0.7300    0.4950 C   0  0  0  0  0  0  0  0  0  0  0  0
    5.6609    1.3128   -0.5921 C   0  0  0  0  0  0  0  0  0  0  0  0
    4.4269    0.7961   -1.0120 C   0  0  0  0  0  0  0  0  0  0  0  0
    0.9819    1.7903   -0.5073 H   0  0  0  0  0  0  0  0  0  0  0  0
    2.3634    1.6811    0.7071 H   0  0  0  0  0  0  0  0  0  0  0  0
    0.6217    1.7031    1.2804 H   0  0  0  0  0  0  0  0  0  0  0  0
    2.1631   -0.4633   -1.7611 H   0  0  0  0  0  0  0  0  0  0  0  0
    2.4562   -1.9505   -0.8176 H   0  0  0  0  0  0  0  0  0  0  0  0
    4.0839   -1.7489    1.2589 H   0  0  0  0  0  0  0  0  0  0  0  0
    6.2888   -0.8309    2.0091 H   0  0  0  0  0  0  0  0  0  0  0  0
    7.3002    1.1347    0.8262 H   0  0  0  0  0  0  0  0  0  0  0  0
    6.1018    2.1734   -1.1175 H   0  0  0  0  0  0  0  0  0  0  0  0
    3.8999    1.2515   -1.8655 H   0  0  0  0  0  0  0  0  0  0  0  0
  1  3  1  0  0  0  0
  1  2  1  1  0  0  0
  3 12  1  0  0  0  0
  3 13  1  0  0  0  0
  4  5  1  0  0  0  0
  4  1  1  0  0  0  0
  5  6  1  0  0  0  0
  6  7  2  0  0  0  0
  6 16  1  0  0  0  0
  7 17  1  0  0  0  0
  8 18  1  0  0  0  0
  8  7  1  0  0  0  0
  9  8  2  0  0  0  0
 10  9  1  0  0  0  0
 10  5  2  0  0  0  0
 11  3  1  0  0  0  0
 14  4  1  0  0  0  0
 15  4  1  0  0  0  0
 19  9  1  0  0  0  0
 20 10  1  0  0  0  0
M  END
