1
 OpenBabel05122313063D

 47 47  0  0  1  0  0  0  0  0999 V2000
   -0.6340    1.6264   -0.2408 S   0  0  0  0  0  1  0  0  0  0  0  0
    0.7852   -0.5635   -0.0246 O   0  0  0  0  0  0  0  0  0  0  0  0
    0.8379    0.7872   -0.1682 C   0  0  2  0  0  3  0  0  0  0  0  0
    2.1223    1.4163   -0.2349 C   0  0  0  0  0  0  0  0  0  0  0  0
    3.2693    0.6264   -0.0929 C   0  0  0  0  0  0  0  0  0  0  0  0
    3.1491   -0.8053    0.0619 C   0  0  0  0  0  0  0  0  0  0  0  0
    1.8836   -1.3531    0.1025 C   0  0  0  0  0  0  0  0  0  0  0  0
    2.1719    2.9175   -0.3826 C   0  0  0  0  0  0  0  0  0  0  0  0
    3.0929    3.2195   -0.9205 H   0  0  0  0  0  0  0  0  0  0  0  0
    1.3176    3.2365   -1.0146 H   0  0  0  0  0  0  0  0  0  0  0  0
    2.0917    3.6597    0.9661 C   0  0  0  0  0  0  0  0  0  0  0  0
    2.9461    3.3489    1.6068 H   0  0  0  0  0  0  0  0  0  0  0  0
    1.1732    3.3280    1.4941 H   0  0  0  0  0  0  0  0  0  0  0  0
    2.0808    5.1779    0.7992 C   0  0  0  0  0  0  0  0  0  0  0  0
    2.0291    5.6930    1.7791 H   0  0  0  0  0  0  0  0  0  0  0  0
    1.2061    5.5067    0.2012 H   0  0  0  0  0  0  0  0  0  0  0  0
    2.9933    5.5370    0.2784 H   0  0  0  0  0  0  0  0  0  0  0  0
    4.6410    1.2532   -0.1633 C   0  0  0  0  0  0  0  0  0  0  0  0
    5.3488    0.6916    0.4790 H   0  0  0  0  0  0  0  0  0  0  0  0
    4.6108    2.2807    0.2500 H   0  0  0  0  0  0  0  0  0  0  0  0
    5.1997    1.3038   -1.6009 C   0  0  0  0  0  0  0  0  0  0  0  0
    5.2137    0.2758   -2.0232 H   0  0  0  0  0  0  0  0  0  0  0  0
    4.4942    1.8757   -2.2410 H   0  0  0  0  0  0  0  0  0  0  0  0
    6.5955    1.9210   -1.6685 C   0  0  0  0  0  0  0  0  0  0  0  0
    6.9750    1.9512   -2.7091 H   0  0  0  0  0  0  0  0  0  0  0  0
    7.3231    1.3422   -1.0622 H   0  0  0  0  0  0  0  0  0  0  0  0
    6.5956    2.9607   -1.2806 H   0  0  0  0  0  0  0  0  0  0  0  0
    4.3592   -1.6946    0.2450 C   0  0  0  0  0  0  0  0  0  0  0  0
    4.1517   -2.7019   -0.1692 H   0  0  0  0  0  0  0  0  0  0  0  0
    5.2070   -1.3048   -0.3546 H   0  0  0  0  0  0  0  0  0  0  0  0
    4.7977   -1.8348    1.7152 C   0  0  0  0  0  0  0  0  0  0  0  0
    4.9835   -0.8243    2.1398 H   0  0  0  0  0  0  0  0  0  0  0  0
    3.9502   -2.2481    2.3038 H   0  0  0  0  0  0  0  0  0  0  0  0
    6.0368   -2.7123    1.8840 C   0  0  0  0  0  0  0  0  0  0  0  0
    6.3283   -2.8044    2.9490 H   0  0  0  0  0  0  0  0  0  0  0  0
    6.9054   -2.2947    1.3332 H   0  0  0  0  0  0  0  0  0  0  0  0
    5.8617   -3.7367    1.4944 H   0  0  0  0  0  0  0  0  0  0  0  0
    1.5154   -2.7984    0.2265 C   0  0  0  0  0  0  0  0  0  0  0  0
    0.5481   -2.8566    0.7652 H   0  0  0  0  0  0  0  0  0  0  0  0
    2.2630   -3.3177    0.8592 H   0  0  0  0  0  0  0  0  0  0  0  0
    1.3944   -3.5137   -1.1363 C   0  0  0  0  0  0  0  0  0  0  0  0
    0.6744   -2.9572   -1.7696 H   0  0  0  0  0  0  0  0  0  0  0  0
    2.3741   -3.4667   -1.6601 H   0  0  0  0  0  0  0  0  0  0  0  0
    0.9401   -4.9644   -0.9879 C   0  0  0  0  0  0  0  0  0  0  0  0
    0.8669   -5.4644   -1.9739 H   0  0  0  0  0  0  0  0  0  0  0  0
   -0.0590   -5.0216   -0.5090 H   0  0  0  0  0  0  0  0  0  0  0  0
    1.6444   -5.5521   -0.3625 H   0  0  0  0  0  0  0  0  0  0  0  0
  2  7  1  0  0  0  0
  3  1  1  1  0  0  0
  3  2  1  0  0  0  0
  4  3  1  0  0  0  0
  4  5  2  0  0  0  0
  5  6  1  0  0  0  0
  6  7  2  0  0  0  0
  6 28  1  0  0  0  0
  7 38  1  0  0  0  0
  8  4  1  0  0  0  0
  8 11  1  0  0  0  0
  9  8  1  0  0  0  0
 10  8  1  0  0  0  0
 11 13  1  0  0  0  0
 11 12  1  0  0  0  0
 14 11  1  0  0  0  0
 14 15  1  0  0  0  0
 16 14  1  0  0  0  0
 17 14  1  0  0  0  0
 18  5  1  0  0  0  0
 18 20  1  0  0  0  0
 18 19  1  0  0  0  0
 21 18  1  0  0  0  0
 22 21  1  0  0  0  0
 23 21  1  0  0  0  0
 24 21  1  0  0  0  0
 24 27  1  0  0  0  0
 24 26  1  0  0  0  0
 25 24  1  0  0  0  0
 28 31  1  0  0  0  0
 29 28  1  0  0  0  0
 30 28  1  0  0  0  0
 31 34  1  0  0  0  0
 31 32  1  0  0  0  0
 31 33  1  0  0  0  0
 34 35  1  0  0  0  0
 36 34  1  0  0  0  0
 37 34  1  0  0  0  0
 38 39  1  0  0  0  0
 38 40  1  0  0  0  0
 41 44  1  0  0  0  0
 41 38  1  0  0  0  0
 42 41  1  0  0  0  0
 43 41  1  0  0  0  0
 44 46  1  0  0  0  0
 44 47  1  0  0  0  0
 45 44  1  0  0  0  0
M  END
