1
q = 0.0, confidence = 0.998

 30 31  0  0  1  0  0  0  0  0999 V2000
   -1.9236   -1.2431   -0.5320 S   0  0  0  0  0  1  0  0  0  0  0  0
   -5.2616    1.8015    0.1700 O   0  0  0  0  0  0  0  0  0  0  0  0
   -4.5525   -0.6502   -0.2505 N   0  0  0  0  0  0  0  0  0  0  0  0
   -5.2030    0.1619   -0.0829 H   0  0  0  0  0  0  0  0  0  0  0  0
   -3.2854   -0.2130   -0.3881 C   0  0  1  0  0  3  0  0  0  0  0  0
   -3.1143    1.1625   -0.3695 N   0  0  0  0  0  0  0  0  0  0  0  0
   -2.1793    1.4693   -0.7301 H   0  0  0  0  0  0  0  0  0  0  0  0
   -4.0777    2.1143   -0.0525 C   0  0  0  0  0  0  0  0  0  0  0  0
   -5.0891   -1.9458   -0.1361 C   0  0  0  0  0  0  0  0  0  0  0  0
   -4.4912   -3.1011   -0.6814 C   0  0  0  0  0  0  0  0  0  0  0  0
   -3.5510   -3.0247   -1.2410 H   0  0  0  0  0  0  0  0  0  0  0  0
   -5.1187   -4.3451   -0.5222 C   0  0  0  0  0  0  0  0  0  0  0  0
   -4.6437   -5.2405   -0.9505 H   0  0  0  0  0  0  0  0  0  0  0  0
   -6.3386   -4.4554    0.1609 C   0  0  0  0  0  0  0  0  0  0  0  0
   -6.8215   -5.4366    0.2795 H   0  0  0  0  0  0  0  0  0  0  0  0
   -6.9432   -3.3006    0.6856 C   0  0  0  0  0  0  0  0  0  0  0  0
   -7.9029   -3.3704    1.2192 H   0  0  0  0  0  0  0  0  0  0  0  0
   -6.3267   -2.0543    0.5393 C   0  0  0  0  0  0  0  0  0  0  0  0
   -6.7921   -1.1489    0.9583 H   0  0  0  0  0  0  0  0  0  0  0  0
   -3.6246    3.5331    0.0204 C   0  0  0  0  0  0  0  0  0  0  0  0
   -2.2700    3.9297   -0.0265 C   0  0  0  0  0  0  0  0  0  0  0  0
   -1.4596    3.1963   -0.1556 H   0  0  0  0  0  0  0  0  0  0  0  0
   -1.9383    5.2878    0.0704 C   0  0  0  0  0  0  0  0  0  0  0  0
   -0.8808    5.5882    0.0285 H   0  0  0  0  0  0  0  0  0  0  0  0
   -2.9439    6.2556    0.2193 C   0  0  0  0  0  0  0  0  0  0  0  0
   -2.6760    7.3206    0.2950 H   0  0  0  0  0  0  0  0  0  0  0  0
   -4.2931    5.8645    0.2724 C   0  0  0  0  0  0  0  0  0  0  0  0
   -5.0836    6.6209    0.3896 H   0  0  0  0  0  0  0  0  0  0  0  0
   -4.6319    4.5114    0.1762 C   0  0  0  0  0  0  0  0  0  0  0  0
   -5.6785    4.1774    0.2198 H   0  0  0  0  0  0  0  0  0  0  0  0
  3  9  1  0  0  0  0
  3  4  1  0  0  0  0
  5  1  1  1  0  0  0
  5  6  1  0  0  0  0
  5  3  1  0  0  0  0
  6  8  1  0  0  0  0
  7  6  1  0  0  0  0
  8 20  1  0  0  0  0
  8  2  2  0  0  0  0
  9 18  1  0  0  0  0
 10 12  1  0  0  0  0
 10  9  2  0  0  0  0
 11 10  1  0  0  0  0
 12 14  2  0  0  0  0
 13 12  1  0  0  0  0
 14 15  1  0  0  0  0
 14 16  1  0  0  0  0
 16 17  1  0  0  0  0
 18 16  2  0  0  0  0
 18 19  1  0  0  0  0
 20 29  1  0  0  0  0
 21 20  2  0  0  0  0
 21 23  1  0  0  0  0
 22 21  1  0  0  0  0
 23 25  2  0  0  0  0
 24 23  1  0  0  0  0
 25 27  1  0  0  0  0
 25 26  1  0  0  0  0
 27 28  1  0  0  0  0
 29 30  1  0  0  0  0
 29 27  2  0  0  0  0
M  END
