1
 OpenBabel05122313063D

 15 15  0  0  1  0  0  0  0  0999 V2000
   -1.2406   -1.6807    1.6147 S   0  0  0  0  0  1  0  0  0  0  0  0
   -2.8086   -1.8874    0.9978 C   0  0  1  0  0  3  0  0  0  0  0  0
   -3.0508   -2.1270   -0.3201 N   0  0  0  0  0  0  0  0  0  0  0  0
   -2.2250   -2.0395   -0.9794 H   0  0  0  0  0  0  0  0  0  0  0  0
   -5.2702   -1.9995    1.4008 C   0  0  0  0  0  0  0  0  0  0  0  0
   -6.1654   -1.8845    2.2285 O   0  0  0  0  0  0  0  0  0  0  0  0
   -5.4081   -2.2717   -0.0216 C   0  0  0  0  0  0  0  0  0  0  0  0
   -6.4223   -2.4107   -0.4146 H   0  0  0  0  0  0  0  0  0  0  0  0
   -4.3117   -2.3114   -0.8471 C   0  0  0  0  0  0  0  0  0  0  0  0
   -4.3663   -2.5315   -2.3270 C   0  0  0  0  0  0  0  0  0  0  0  0
   -5.4109   -2.6088   -2.6764 H   0  0  0  0  0  0  0  0  0  0  0  0
   -3.8210   -3.4573   -2.6038 H   0  0  0  0  0  0  0  0  0  0  0  0
   -3.8501   -1.7045   -2.8575 H   0  0  0  0  0  0  0  0  0  0  0  0
   -3.9079   -1.8522    1.8032 N   0  0  0  0  0  0  0  0  0  0  0  0
   -3.7555   -1.6222    2.7900 H   0  0  0  0  0  0  0  0  0  0  0  0
  2  1  1  1  0  0  0
  2 14  1  0  0  0  0
  3  2  1  0  0  0  0
  4  3  1  0  0  0  0
  5 14  1  0  0  0  0
  5  6  2  0  0  0  0
  7  5  1  0  0  0  0
  8  7  1  0  0  0  0
  9  3  1  0  0  0  0
  9  7  2  0  0  0  0
 10  9  1  0  0  0  0
 11 10  1  0  0  0  0
 12 10  1  0  0  0  0
 13 10  1  0  0  0  0
 14 15  1  0  0  0  0
M  END
