1
 OpenBabel05122313063D

 12 11  0  0  0  0  0  0  0  0999 V2000
    1.3100    1.0561    0.0566 S   0  0  0  0  0  1  0  0  0  0  0  0
    2.4323   -0.2062    0.0137 C   0  0  0  0  0  3  0  0  0  0  0  0
    2.0348   -1.2452    0.0294 H   0  0  0  0  0  0  0  0  0  0  0  0
    4.3631    1.2771   -0.0621 C   0  0  0  0  0  0  0  0  0  0  0  0
    5.3495    1.2169   -0.5581 H   0  0  0  0  0  0  0  0  0  0  0  0
    4.4978    1.6666    0.9693 H   0  0  0  0  0  0  0  0  0  0  0  0
    3.7101    1.9782   -0.6184 H   0  0  0  0  0  0  0  0  0  0  0  0
    4.6432   -1.2024    0.0009 C   0  0  0  0  0  0  0  0  0  0  0  0
    5.2924   -1.2136   -0.8984 H   0  0  0  0  0  0  0  0  0  0  0  0
    4.0476   -2.1323    0.0312 H   0  0  0  0  0  0  0  0  0  0  0  0
    5.2887   -1.1572    0.9026 H   0  0  0  0  0  0  0  0  0  0  0  0
    3.7500   -0.0476   -0.0384 N   0  0  0  0  0  0  0  0  0  0  0  0
  2  3  1  0  0  0  0
  2  1  1  0  0  0  0
  4 12  1  0  0  0  0
  4  6  1  0  0  0  0
  5  4  1  0  0  0  0
  7  4  1  0  0  0  0
  8 10  1  0  0  0  0
  8 11  1  0  0  0  0
  9  8  1  0  0  0  0
 12  8  1  0  0  0  0
 12  2  1  0  0  0  0
M  END
