1
 OpenBabel05122313063D

 17 18  0  0  0  0  0  0  0  0999 V2000
    1.7477   -2.2225   -0.2637 S   0  0  0  0  0  0  0  0  0  0  0  0
    3.2189   -1.3957    0.3399 C   0  0  0  0  0  0  0  0  0  0  0  0
    4.0151   -0.8668   -0.6984 C   0  0  0  0  0  0  0  0  0  0  0  0
    5.1836   -0.1705   -0.3572 C   0  0  0  0  0  0  0  0  0  0  0  0
    5.5343   -0.0146    0.9957 C   0  0  0  0  0  0  0  0  0  0  0  0
    4.7239   -0.5481    2.0134 C   0  0  0  0  0  0  0  0  0  0  0  0
    3.5494   -1.2491    1.6935 C   0  0  0  0  0  0  0  0  0  0  0  0
    3.4338   -1.0865   -2.0728 C   0  0  0  0  0  0  0  0  0  0  0  0
    2.4570   -2.2623   -1.9701 C   0  0  0  0  0  0  0  0  0  0  0  0
    5.8209    0.2545   -1.1479 H   0  0  0  0  0  0  0  0  0  0  0  0
    6.4552    0.5273    1.2593 H   0  0  0  0  0  0  0  0  0  0  0  0
    5.0129   -0.4245    3.0680 H   0  0  0  0  0  0  0  0  0  0  0  0
    2.8902   -1.6640    2.4696 H   0  0  0  0  0  0  0  0  0  0  0  0
    2.8628   -0.1809   -2.3792 H   0  0  0  0  0  0  0  0  0  0  0  0
    4.2122   -1.2712   -2.8406 H   0  0  0  0  0  0  0  0  0  0  0  0
    2.9609   -3.2461   -2.0569 H   0  0  0  0  0  0  0  0  0  0  0  0
    1.6054   -2.1967   -2.6722 H   0  0  0  0  0  0  0  0  0  0  0  0
  1  2  1  0  0  0  0
  2  7  1  0  0  0  0
  3  4  1  0  0  0  0
  3  2  2  0  0  0  0
  4  5  2  0  0  0  0
  5 11  1  0  0  0  0
  5  6  1  0  0  0  0
  6 12  1  0  0  0  0
  7  6  2  0  0  0  0
  7 13  1  0  0  0  0
  8  9  1  0  0  0  0
  8  3  1  0  0  0  0
  9  1  1  0  0  0  0
 10  4  1  0  0  0  0
 14  8  1  0  0  0  0
 15  8  1  0  0  0  0
 16  9  1  0  0  0  0
 17  9  1  0  0  0  0
M  END
