1
 OpenBabel05122313063D

 17 18  0  0  0  0  0  0  0  0999 V2000
   -1.5580    0.3599   -1.7124 S   0  0  0  0  0  0  0  0  0  0  0  0
   -2.7545    1.6079   -1.0449 C   0  0  0  0  0  0  0  0  0  0  0  0
   -3.7770    0.8191   -0.2714 C   0  0  0  0  0  0  0  0  0  0  0  0
   -4.6626    1.3546    0.6760 C   0  0  0  0  0  0  0  0  0  0  0  0
   -5.5788    0.5070    1.3197 C   0  0  0  0  0  0  0  0  0  0  0  0
   -5.6079   -0.8650    1.0199 C   0  0  0  0  0  0  0  0  0  0  0  0
   -4.7218   -1.4032    0.0728 C   0  0  0  0  0  0  0  0  0  0  0  0
   -3.8077   -0.5579   -0.5737 C   0  0  0  0  0  0  0  0  0  0  0  0
   -2.8129   -0.9946   -1.6164 C   0  0  0  0  0  0  0  0  0  0  0  0
   -2.1604    2.3287   -0.4491 H   0  0  0  0  0  0  0  0  0  0  0  0
   -3.1929    2.1344   -1.9205 H   0  0  0  0  0  0  0  0  0  0  0  0
   -4.6294    2.4273    0.9199 H   0  0  0  0  0  0  0  0  0  0  0  0
   -6.2674    0.9192    2.0725 H   0  0  0  0  0  0  0  0  0  0  0  0
   -6.3188   -1.5254    1.5389 H   0  0  0  0  0  0  0  0  0  0  0  0
   -4.7324   -2.4804   -0.1520 H   0  0  0  0  0  0  0  0  0  0  0  0
   -3.2628   -1.0902   -2.6283 H   0  0  0  0  0  0  0  0  0  0  0  0
   -2.2647   -1.9234   -1.3586 H   0  0  0  0  0  0  0  0  0  0  0  0
  1  9  1  0  0  0  0
  1  2  1  0  0  0  0
  2 10  1  0  0  0  0
  2  3  1  0  0  0  0
  3  4  1  0  0  0  0
  4 12  1  0  0  0  0
  4  5  2  0  0  0  0
  5 13  1  0  0  0  0
  6  5  1  0  0  0  0
  6 14  1  0  0  0  0
  7  6  2  0  0  0  0
  8  3  2  0  0  0  0
  8  7  1  0  0  0  0
  9 17  1  0  0  0  0
  9  8  1  0  0  0  0
 11  2  1  0  0  0  0
 15  7  1  0  0  0  0
 16  9  1  0  0  0  0
M  END
