1
 OpenBabel05122313063D

 12 12  0  0  0  0  0  0  0  0999 V2000
    0.7477    0.1214   -1.7951 S   0  0  0  0  0  1  0  0  0  0  0  0
    1.9563    1.2096   -1.2492 C   0  0  0  0  0  0  0  0  0  0  0  0
    3.1827    1.3488   -1.9763 C   0  0  0  0  0  0  0  0  0  0  0  0
    4.2207    2.1047   -1.4778 C   0  0  0  0  0  3  0  0  0  0  0  0
    4.0722    2.7759   -0.2969 N   0  0  0  0  0  0  0  0  0  0  0  0
    4.8691    3.2859    0.0881 H   0  0  0  0  0  0  0  0  0  0  0  0
    2.9053    2.7257    0.4123 C   0  0  0  0  0  0  0  0  0  0  0  0
    1.8432    1.9736   -0.0382 C   0  0  0  0  0  0  0  0  0  0  0  0
    0.9147    1.9444    0.5554 H   0  0  0  0  0  0  0  0  0  0  0  0
    2.8753    3.2949    1.3513 H   0  0  0  0  0  0  0  0  0  0  0  0
    5.2028    2.1677   -1.9638 H   0  0  0  0  0  0  0  0  0  0  0  0
    3.3223    0.7892   -2.9103 H   0  0  0  0  0  0  0  0  0  0  0  0
  1  2  1  0  0  0  0
  2  8  1  0  0  0  0
  3  4  1  0  0  0  0
  3  2  2  0  0  0  0
  4  5  1  0  0  0  0
  5  6  1  0  0  0  0
  5  7  1  0  0  0  0
  7 10  1  0  0  0  0
  8  7  2  0  0  0  0
  8  9  1  0  0  0  0
 11  4  1  0  0  0  0
 12  3  1  0  0  0  0
M  END
