1
 OpenBabel05122313063D

 49 51  0  0  1  0  0  0  0  0999 V2000
   -1.1007    0.9211   -0.5420 S   0  0  0  0  0  0  0  0  0  0  0  0
    2.0771   -1.0817   -0.9261 N   0  0  0  0  0  2  0  0  0  0  0  0
    0.6539    1.0411   -0.8875 C   0  0  2  0  0  3  0  0  0  0  0  0
    1.4071   -0.0699   -0.8145 C   0  0  0  0  0  2  0  0  0  0  0  0
    1.2269    2.3602   -1.2342 C   0  0  0  0  0  0  0  0  0  0  0  0
    2.6298    2.5584   -1.2339 C   0  0  0  0  0  0  0  0  0  0  0  0
    3.1796    3.8006   -1.5678 C   0  0  0  0  0  0  0  0  0  0  0  0
    2.3465    4.8837   -1.8971 C   0  0  0  0  0  0  0  0  0  0  0  0
    0.9555    4.7019   -1.8941 C   0  0  0  0  0  0  0  0  0  0  0  0
    0.3992    3.4565   -1.5701 C   0  0  0  0  0  0  0  0  0  0  0  0
   -1.1522    1.6866    1.1579 C   0  0  0  0  0  0  0  0  0  0  0  0
   -0.5841    0.7905    2.2541 C   0  0  0  0  0  0  0  0  0  0  0  0
   -0.6607    1.4910    3.6200 C   0  0  0  0  0  0  0  0  0  0  0  0
   -2.0939    1.9405    3.9319 C   0  0  0  0  0  0  0  0  0  0  0  0
   -2.6411    2.8496    2.8241 C   0  0  0  0  0  0  0  0  0  0  0  0
   -2.5782    2.1644    1.4489 C   0  0  0  0  0  0  0  0  0  0  0  0
    2.9633   -1.7618    0.0107 C   0  0  0  0  0  0  0  0  0  0  0  0
    4.3568   -1.8963   -0.6280 C   0  0  0  0  0  0  0  0  0  0  0  0
    5.3155   -2.6488    0.3031 C   0  0  0  0  0  0  0  0  0  0  0  0
    5.3941   -1.9892    1.6862 C   0  0  0  0  0  0  0  0  0  0  0  0
    4.0020   -1.8525    2.3164 C   0  0  0  0  0  0  0  0  0  0  0  0
    3.0356   -1.1005    1.3928 C   0  0  0  0  0  0  0  0  0  0  0  0
    3.2944    1.7229   -0.9639 H   0  0  0  0  0  0  0  0  0  0  0  0
    4.2731    3.9272   -1.5628 H   0  0  0  0  0  0  0  0  0  0  0  0
    2.7805    5.8621   -2.1514 H   0  0  0  0  0  0  0  0  0  0  0  0
    0.2891    5.5385   -2.1544 H   0  0  0  0  0  0  0  0  0  0  0  0
   -0.6921    3.3167   -1.5903 H   0  0  0  0  0  0  0  0  0  0  0  0
   -0.4957    2.5756    1.0308 H   0  0  0  0  0  0  0  0  0  0  0  0
    0.4622    0.5165    2.0085 H   0  0  0  0  0  0  0  0  0  0  0  0
   -1.1662   -0.1535    2.2926 H   0  0  0  0  0  0  0  0  0  0  0  0
    0.0123    2.3778    3.6185 H   0  0  0  0  0  0  0  0  0  0  0  0
   -0.2806    0.8107    4.4102 H   0  0  0  0  0  0  0  0  0  0  0  0
   -2.1328    2.4604    4.9116 H   0  0  0  0  0  0  0  0  0  0  0  0
   -2.7461    1.0433    4.0229 H   0  0  0  0  0  0  0  0  0  0  0  0
   -2.0452    3.7893    2.7920 H   0  0  0  0  0  0  0  0  0  0  0  0
   -3.6871    3.1490    3.0421 H   0  0  0  0  0  0  0  0  0  0  0  0
   -3.2728    1.2995    1.4422 H   0  0  0  0  0  0  0  0  0  0  0  0
   -2.9162    2.8544    0.6482 H   0  0  0  0  0  0  0  0  0  0  0  0
    2.5393   -2.7846    0.1254 H   0  0  0  0  0  0  0  0  0  0  0  0
    4.7485   -0.8738   -0.8277 H   0  0  0  0  0  0  0  0  0  0  0  0
    4.2645   -2.4005   -1.6111 H   0  0  0  0  0  0  0  0  0  0  0  0
    6.3213   -2.7068   -0.1616 H   0  0  0  0  0  0  0  0  0  0  0  0
    4.9631   -3.6985    0.4166 H   0  0  0  0  0  0  0  0  0  0  0  0
    5.8504   -0.9788    1.5837 H   0  0  0  0  0  0  0  0  0  0  0  0
    6.0653   -2.5690    2.3532 H   0  0  0  0  0  0  0  0  0  0  0  0
    3.5902   -2.8656    2.5228 H   0  0  0  0  0  0  0  0  0  0  0  0
    4.0637   -1.3380    3.2977 H   0  0  0  0  0  0  0  0  0  0  0  0
    2.0191   -1.0640    1.8338 H   0  0  0  0  0  0  0  0  0  0  0  0
    3.3737   -0.0477    1.2617 H   0  0  0  0  0  0  0  0  0  0  0  0
  1 11  1  0  0  0  0
  2  4  1  0  0  0  0
  2 17  1  0  0  0  0
  3  4  1  1  0  0  0
  3  1  1  0  0  0  0
  5  6  1  0  0  0  0
  5  3  1  0  0  0  0
  6 23  1  0  0  0  0
  7 24  1  0  0  0  0
  7  6  2  0  0  0  0
  8  9  2  0  0  0  0
  8  7  1  0  0  0  0
  9 10  1  0  0  0  0
 10  5  2  0  0  0  0
 11 16  1  0  0  0  0
 11 12  1  0  0  0  0
 12 30  1  0  0  0  0
 12 13  1  0  0  0  0
 13 14  1  0  0  0  0
 13 32  1  0  0  0  0
 14 34  1  0  0  0  0
 14 33  1  0  0  0  0
 15 36  1  0  0  0  0
 15 14  1  0  0  0  0
 16 15  1  0  0  0  0
 17 39  1  0  0  0  0
 17 22  1  0  0  0  0
 18 17  1  0  0  0  0
 18 19  1  0  0  0  0
 19 43  1  0  0  0  0
 19 20  1  0  0  0  0
 20 21  1  0  0  0  0
 20 45  1  0  0  0  0
 21 46  1  0  0  0  0
 21 47  1  0  0  0  0
 22 48  1  0  0  0  0
 22 21  1  0  0  0  0
 25  8  1  0  0  0  0
 26  9  1  0  0  0  0
 27 10  1  0  0  0  0
 28 11  1  0  0  0  0
 29 12  1  0  0  0  0
 31 13  1  0  0  0  0
 35 15  1  0  0  0  0
 37 16  1  0  0  0  0
 38 16  1  0  0  0  0
 40 18  1  0  0  0  0
 41 18  1  0  0  0  0
 42 19  1  0  0  0  0
 44 20  1  0  0  0  0
 49 22  1  0  0  0  0
M  END
