1
 OpenBabel05122313063D

 24 24  0  0  0  0  0  0  0  0999 V2000
    1.0856   -2.6019   -2.0734 S   0  0  0  0  0  1  0  0  0  0  0  0
    3.3396   -1.4224   -2.8687 N   0  0  0  0  0  4  0  0  0  0  0  0
    4.1875   -0.8771   -2.6752 H   0  0  0  0  0  0  0  0  0  0  0  0
    3.1555   -1.8221   -3.7879 H   0  0  0  0  0  0  0  0  0  0  0  0
    2.5045   -1.6372   -1.8493 C   0  0  0  0  0  0  0  0  0  0  0  0
    7.8115    2.9834   -1.8927 Cl  0  0  0  0  0  0  0  0  0  0  0  0
    2.8256   -1.0860   -0.6518 N   0  0  0  0  0  0  0  0  0  0  0  0
    2.1830   -1.2777    0.1358 H   0  0  0  0  0  0  0  0  0  0  0  0
    4.2712    0.1298    0.6373 C   0  0  0  0  0  0  0  0  0  0  0  0
    9.2847    3.4795    0.8827 Cl  0  0  0  0  0  0  0  0  0  0  0  0
    3.9476   -0.3338   -0.5426 N   0  0  0  0  0  0  0  0  0  0  0  0
    3.4513   -0.1698    1.8671 C   0  0  0  0  0  0  0  0  0  0  0  0
    3.7708    0.4244    2.7387 H   0  0  0  0  0  0  0  0  0  0  0  0
    3.5161   -1.2445    2.1427 H   0  0  0  0  0  0  0  0  0  0  0  0
    2.3785    0.0664    1.6972 H   0  0  0  0  0  0  0  0  0  0  0  0
    5.4871    0.9628    0.7137 C   0  0  0  0  0  0  0  0  0  0  0  0
    6.0296    1.5266   -0.4641 C   0  0  0  0  0  0  0  0  0  0  0  0
    5.5243    1.3729   -1.4260 H   0  0  0  0  0  0  0  0  0  0  0  0
    7.1928    2.3000   -0.4281 C   0  0  0  0  0  0  0  0  0  0  0  0
    7.8508    2.5264    0.8086 C   0  0  0  0  0  0  0  0  0  0  0  0
    7.3177    1.9681    1.9830 C   0  0  0  0  0  0  0  0  0  0  0  0
    7.8385    2.1445    2.9343 H   0  0  0  0  0  0  0  0  0  0  0  0
    6.1496    1.2021    1.9400 C   0  0  0  0  0  0  0  0  0  0  0  0
    5.7749    0.7684    2.8774 H   0  0  0  0  0  0  0  0  0  0  0  0
  1  5  1  0  0  0  0
  2  3  1  0  0  0  0
  2  5  2  0  0  0  0
  4  2  1  0  0  0  0
  5  7  1  0  0  0  0
  6 19  1  0  0  0  0
  7 11  1  0  0  0  0
  7  8  1  0  0  0  0
  9 16  1  0  0  0  0
  9 12  1  0  0  0  0
 11  9  2  0  0  0  0
 12 14  1  0  0  0  0
 12 13  1  0  0  0  0
 15 12  1  0  0  0  0
 16 23  1  0  0  0  0
 17 19  1  0  0  0  0
 17 16  2  0  0  0  0
 18 17  1  0  0  0  0
 19 20  2  0  0  0  0
 20 10  1  0  0  0  0
 20 21  1  0  0  0  0
 21 22  1  0  0  0  0
 23 21  2  0  0  0  0
 23 24  1  0  0  0  0
M  END
