2
 OpenBabel05122313063D

 25 25  0  0  0  0  0  0  0  0999 V2000
   -8.8579   -2.2345    0.0836 Cl  0  0  0  0  0  0  0  0  0  0  0  0
   -2.1459   -0.7503    0.0178 S   0  0  0  0  0  1  0  0  0  0  0  0
   -1.8114    1.8684    0.0698 O   0  0  0  0  0  0  0  0  0  0  0  0
   -4.0162    1.2494   -0.0390 N   0  0  0  0  0  0  0  0  0  0  0  0
   -2.7767    0.9090    0.0267 C   0  0  0  0  0  0  0  0  0  0  0  0
   -5.1044    0.3841   -0.0086 C   0  0  0  0  0  0  0  0  0  0  0  0
   -5.2618   -0.6290    0.9701 C   0  0  0  0  0  0  0  0  0  0  0  0
   -4.4685   -0.7837    1.7150 H   0  0  0  0  0  0  0  0  0  0  0  0
   -6.4108   -1.4272    1.0025 C   0  0  0  0  0  0  0  0  0  0  0  0
   -6.5280   -2.2083    1.7673 H   0  0  0  0  0  0  0  0  0  0  0  0
   -7.4225   -1.2313    0.0487 C   0  0  0  0  0  0  0  0  0  0  0  0
   -7.2943   -0.2310   -0.9284 C   0  0  0  0  0  0  0  0  0  0  0  0
   -8.0959   -0.0839   -1.6661 H   0  0  0  0  0  0  0  0  0  0  0  0
   -6.1490    0.5723   -0.9455 C   0  0  0  0  0  0  0  0  0  0  0  0
   -6.0386    1.3685   -1.6962 H   0  0  0  0  0  0  0  0  0  0  0  0
   -2.2464    3.2571    0.1089 C   0  0  0  0  0  0  0  0  0  0  0  0
   -3.1399    3.3364   -0.5455 H   0  0  0  0  0  0  0  0  0  0  0  0
   -2.6351    3.6397    1.5325 C   0  0  0  0  0  0  0  0  0  0  0  0
   -3.4803    3.0157    1.8795 H   0  0  0  0  0  0  0  0  0  0  0  0
   -2.9507    4.7020    1.5735 H   0  0  0  0  0  0  0  0  0  0  0  0
   -1.7767    3.5032    2.2218 H   0  0  0  0  0  0  0  0  0  0  0  0
   -1.0947    4.0804   -0.4482 C   0  0  0  0  0  0  0  0  0  0  0  0
   -0.8156    3.7318   -1.4621 H   0  0  0  0  0  0  0  0  0  0  0  0
   -0.2013    4.0069    0.2051 H   0  0  0  0  0  0  0  0  0  0  0  0
   -1.3853    5.1477   -0.5132 H   0  0  0  0  0  0  0  0  0  0  0  0
  2  5  1  0  0  0  0
  3 16  1  0  0  0  0
  4  6  1  0  0  0  0
  4  5  2  0  0  0  0
  5  3  1  0  0  0  0
  6  7  1  0  0  0  0
  7  9  2  0  0  0  0
  7  8  1  0  0  0  0
  9 10  1  0  0  0  0
 11  1  1  0  0  0  0
 11  9  1  0  0  0  0
 12 11  2  0  0  0  0
 13 12  1  0  0  0  0
 14 12  1  0  0  0  0
 14  6  2  0  0  0  0
 15 14  1  0  0  0  0
 16 18  1  0  0  0  0
 17 16  1  0  0  0  0
 18 20  1  0  0  0  0
 18 19  1  0  0  0  0
 18 21  1  0  0  0  0
 22 16  1  0  0  0  0
 22 24  1  0  0  0  0
 23 22  1  0  0  0  0
 25 22  1  0  0  0  0
M  END
