2
 OpenBabel05122313063D

 19 19  0  0  0  0  0  0  0  0999 V2000
   -7.0416   -1.6163    2.1960 Cl  0  0  0  0  0  0  0  0  0  0  0  0
   -2.3719   -0.6022   -0.1189 S   0  0  0  0  0  1  0  0  0  0  0  0
   -1.7998    1.9393   -0.5522 O   0  0  0  0  0  0  0  0  0  0  0  0
   -4.0416    1.5190   -0.6393 N   0  0  0  0  0  0  0  0  0  0  0  0
   -2.8499    1.0726   -0.4537 C   0  0  0  0  0  0  0  0  0  0  0  0
   -5.2191    0.7946   -0.4907 C   0  0  0  0  0  0  0  0  0  0  0  0
   -5.4884    0.0013    0.6520 C   0  0  0  0  0  0  0  0  0  0  0  0
   -4.7334   -0.1035    1.4420 H   0  0  0  0  0  0  0  0  0  0  0  0
   -6.7235   -0.6469    0.7695 C   0  0  0  0  0  0  0  0  0  0  0  0
   -7.7131   -0.5437   -0.2213 C   0  0  0  0  0  0  0  0  0  0  0  0
   -8.6712   -1.0670   -0.1001 H   0  0  0  0  0  0  0  0  0  0  0  0
   -7.4412    0.2458   -1.3501 C   0  0  0  0  0  0  0  0  0  0  0  0
   -8.2056    0.3427   -2.1366 H   0  0  0  0  0  0  0  0  0  0  0  0
   -6.2200    0.9156   -1.4849 C   0  0  0  0  0  0  0  0  0  0  0  0
   -6.0089    1.5455   -2.3608 H   0  0  0  0  0  0  0  0  0  0  0  0
   -2.1310    3.3017   -0.8334 C   0  0  0  0  0  0  0  0  0  0  0  0
   -2.6707    3.3892   -1.7983 H   0  0  0  0  0  0  0  0  0  0  0  0
   -1.1652    3.8402   -0.8751 H   0  0  0  0  0  0  0  0  0  0  0  0
   -2.7800    3.7276   -0.0413 H   0  0  0  0  0  0  0  0  0  0  0  0
  3  5  1  0  0  0  0
  4  6  1  0  0  0  0
  4  5  2  0  0  0  0
  5  2  1  0  0  0  0
  6  7  1  0  0  0  0
  7  9  2  0  0  0  0
  7  8  1  0  0  0  0
  9  1  1  0  0  0  0
 10 11  1  0  0  0  0
 10  9  1  0  0  0  0
 12 10  2  0  0  0  0
 13 12  1  0  0  0  0
 14 12  1  0  0  0  0
 14  6  2  0  0  0  0
 15 14  1  0  0  0  0
 16  3  1  0  0  0  0
 16 19  1  0  0  0  0
 17 16  1  0  0  0  0
 18 16  1  0  0  0  0
M  END
