1
 OpenBabel05122313063D

 16 16  0  0  0  0  0  0  0  0999 V2000
    2.2901   -2.0430   -0.7613 S   0  0  0  0  0  1  0  0  0  0  0  0
    5.6258    3.0577    0.4949 F   0  0  0  0  0  0  0  0  0  0  0  0
    5.6723    1.9702   -1.3985 F   0  0  0  0  0  0  0  0  0  0  0  0
    1.6514    0.1471    0.6528 N   0  0  0  0  0  0  0  0  0  0  0  0
    3.8475    0.0596   -0.3044 N   0  0  0  0  0  0  0  0  0  0  0  0
    2.6302   -0.4552   -0.0669 C   0  0  0  0  0  0  0  0  0  0  0  0
    4.0835    1.2694    0.2118 C   0  0  0  0  0  0  0  0  0  0  0  0
    3.1417    1.9909    0.9573 C   0  0  0  0  0  0  0  0  0  0  0  0
    1.8932    1.3660    1.1647 C   0  0  0  0  0  0  0  0  0  0  0  0
    0.7896    2.0025    1.9591 C   0  0  0  0  0  0  0  0  0  0  0  0
    5.4724    1.8366   -0.0728 C   0  0  0  0  0  0  0  0  0  0  0  0
    3.3675    2.9856    1.3611 H   0  0  0  0  0  0  0  0  0  0  0  0
   -0.1648    1.9444    1.3988 H   0  0  0  0  0  0  0  0  0  0  0  0
    1.0115    3.0560    2.2096 H   0  0  0  0  0  0  0  0  0  0  0  0
    6.4310    1.0289    0.4175 F   0  0  0  0  0  0  0  0  0  0  0  0
    0.6339    1.4393    2.9026 H   0  0  0  0  0  0  0  0  0  0  0  0
  1  6  1  0  0  0  0
  3 11  1  0  0  0  0
  4  9  1  0  0  0  0
  5  6  1  0  0  0  0
  5  7  2  0  0  0  0
  6  4  2  0  0  0  0
  7  8  1  0  0  0  0
  8  9  2  0  0  0  0
  8 12  1  0  0  0  0
  9 10  1  0  0  0  0
 10 14  1  0  0  0  0
 10 16  1  0  0  0  0
 11  7  1  0  0  0  0
 11 15  1  0  0  0  0
 11  2  1  0  0  0  0
 13 10  1  0  0  0  0
M  END
