1
 OpenBabel05122313063D

 24 24  0  0  0  0  0  0  0  0999 V2000
   -2.0566   -0.0449    0.9161 S   0  0  0  0  0  1  0  0  0  0  0  0
   -2.3741    1.5388    0.1821 C   0  0  0  0  0  0  0  0  0  0  0  0
   -1.2852    2.2412   -0.2158 N   0  0  0  0  0  0  0  0  0  0  0  0
   -1.4275    3.4768   -0.7049 C   0  0  0  0  0  0  0  0  0  0  0  0
   -0.4938    3.9858   -1.0080 H   0  0  0  0  0  0  0  0  0  0  0  0
   -2.6678    4.1187   -0.8311 C   0  0  0  0  0  0  0  0  0  0  0  0
   -2.7406    5.1435   -1.2224 H   0  0  0  0  0  0  0  0  0  0  0  0
   -3.8003    3.3962   -0.4477 C   0  0  0  0  0  0  0  0  0  0  0  0
   -4.8167    3.8130   -0.5140 H   0  0  0  0  0  0  0  0  0  0  0  0
   -3.6928    2.0835    0.0494 C   0  0  0  0  0  0  0  0  0  0  0  0
   -5.0244    1.4401    0.3788 C   0  0  0  0  0  0  0  0  0  0  0  0
   -6.0509    2.1279    0.4471 O   0  0  0  0  0  0  0  0  0  0  0  0
   -5.0445    0.0858    0.5577 N   0  0  0  0  0  0  0  0  0  0  0  0
   -4.1827   -0.4594    0.4136 H   0  0  0  0  0  0  0  0  0  0  0  0
   -6.2769   -0.6111    0.7902 C   0  0  0  0  0  0  0  0  0  0  0  0
   -7.1070    0.1152    0.6629 H   0  0  0  0  0  0  0  0  0  0  0  0
   -6.3615   -1.0006    1.8318 H   0  0  0  0  0  0  0  0  0  0  0  0
   -6.4516   -1.7868   -0.1568 C   0  0  0  0  0  0  0  0  0  0  0  0
   -7.6604   -2.3679    0.0368 O   0  0  0  0  0  0  0  0  0  0  0  0
   -5.6271   -2.1806   -0.9575 O   0  0  0  0  0  0  0  0  0  0  0  0
   -7.9261   -3.5119   -0.7828 C   0  0  0  0  0  0  0  0  0  0  0  0
   -7.9065   -3.2411   -1.8580 H   0  0  0  0  0  0  0  0  0  0  0  0
   -8.9307   -3.8698   -0.4953 H   0  0  0  0  0  0  0  0  0  0  0  0
   -7.1695   -4.3050   -0.6136 H   0  0  0  0  0  0  0  0  0  0  0  0
  2  1  1  0  0  0  0
  3  2  2  0  0  0  0
  4  3  1  0  0  0  0
  5  4  1  0  0  0  0
  6  4  2  0  0  0  0
  6  8  1  0  0  0  0
  7  6  1  0  0  0  0
  8 10  2  0  0  0  0
  9  8  1  0  0  0  0
 10  2  1  0  0  0  0
 10 11  1  0  0  0  0
 11 12  2  0  0  0  0
 11 13  1  0  0  0  0
 13 15  1  0  0  0  0
 14 13  1  0  0  0  0
 15 17  1  0  0  0  0
 16 15  1  0  0  0  0
 18 19  1  0  0  0  0
 18 15  1  0  0  0  0
 20 18  2  0  0  0  0
 21 24  1  0  0  0  0
 21 23  1  0  0  0  0
 21 19  1  0  0  0  0
 22 21  1  0  0  0  0
M  END
