1
 OpenBabel05122313063D

 11 10  0  0  0  0  0  0  0  0999 V2000
   -1.4472    1.1719    0.0121 S   0  0  0  0  0  3  0  0  0  0  0  0
   -3.0247    0.7409    0.1813 O   0  0  0  0  0  0  0  0  0  0  0  0
   -3.0394   -0.2943   -0.0144 H   0  0  0  0  0  0  0  0  0  0  0  0
   -1.5018    2.1277   -1.5215 C   0  0  0  0  0  0  0  0  0  0  0  0
   -0.5102    2.6191   -1.5819 H   0  0  0  0  0  0  0  0  0  0  0  0
   -2.3462    2.8387   -1.4721 H   0  0  0  0  0  0  0  0  0  0  0  0
   -1.6068    1.3686   -2.3194 H   0  0  0  0  0  0  0  0  0  0  0  0
   -1.3526    2.4841    1.2466 C   0  0  0  0  0  0  0  0  0  0  0  0
   -0.4005    3.0029    1.0192 H   0  0  0  0  0  0  0  0  0  0  0  0
   -1.2831    1.9630    2.2200 H   0  0  0  0  0  0  0  0  0  0  0  0
   -2.2413    3.1334    1.1502 H   0  0  0  0  0  0  0  0  0  0  0  0
  1  2  1  0  0  0  0
  1  8  1  0  0  0  0
  3  2  1  0  0  0  0
  4  6  1  0  0  0  0
  4  1  1  0  0  0  0
  5  4  1  0  0  0  0
  7  4  1  0  0  0  0
  8 10  1  0  0  0  0
  9  8  1  0  0  0  0
 11  8  1  0  0  0  0
M  END
