1
 OpenBabel05122313063D

 44 43  0  0  0  0  0  0  0  0999 V2000
   -1.7975    0.2506   -2.1597 S   0  0  0  0  0  1  0  0  0  0  0  0
   -2.6532    0.0294   -0.2232 Si  0  0  0  0  0  0  0  0  0  0  0  0
   -4.3244   -0.1030   -0.3153 O   0  0  0  0  0  0  0  0  0  0  0  0
   -1.9447   -1.3049    0.5025 O   0  0  0  0  0  0  0  0  0  0  0  0
   -2.3841    1.3078    0.8372 O   0  0  0  0  0  0  0  0  0  0  0  0
   -5.1618   -0.9014   -1.1787 C   0  0  0  0  0  0  0  0  0  0  0  0
   -5.3964   -0.1265   -2.4836 C   0  0  0  0  0  0  0  0  0  0  0  0
   -5.8481    0.8621   -2.2653 H   0  0  0  0  0  0  0  0  0  0  0  0
   -4.4373    0.0375   -3.0139 H   0  0  0  0  0  0  0  0  0  0  0  0
   -6.0801   -0.6818   -3.1574 H   0  0  0  0  0  0  0  0  0  0  0  0
   -4.5184   -2.2661   -1.4669 C   0  0  0  0  0  0  0  0  0  0  0  0
   -3.5559   -2.1409   -2.0023 H   0  0  0  0  0  0  0  0  0  0  0  0
   -4.3207   -2.8148   -0.5253 H   0  0  0  0  0  0  0  0  0  0  0  0
   -5.1896   -2.8832   -2.0974 H   0  0  0  0  0  0  0  0  0  0  0  0
   -6.4791   -1.0800   -0.4131 C   0  0  0  0  0  0  0  0  0  0  0  0
   -6.9229   -0.0917   -0.1793 H   0  0  0  0  0  0  0  0  0  0  0  0
   -7.2098   -1.6620   -1.0098 H   0  0  0  0  0  0  0  0  0  0  0  0
   -6.2995   -1.6118    0.5424 H   0  0  0  0  0  0  0  0  0  0  0  0
   -1.9853   -1.7605    1.8714 C   0  0  0  0  0  0  0  0  0  0  0  0
   -0.9647   -0.9578    2.6920 C   0  0  0  0  0  0  0  0  0  0  0  0
    0.0446   -1.0584    2.2467 H   0  0  0  0  0  0  0  0  0  0  0  0
   -1.2444    0.1129    2.6976 H   0  0  0  0  0  0  0  0  0  0  0  0
   -0.9206   -1.3245    3.7377 H   0  0  0  0  0  0  0  0  0  0  0  0
   -1.5846   -3.2398    1.8142 C   0  0  0  0  0  0  0  0  0  0  0  0
   -0.5769   -3.3421    1.3663 H   0  0  0  0  0  0  0  0  0  0  0  0
   -1.5669   -3.6865    2.8287 H   0  0  0  0  0  0  0  0  0  0  0  0
   -2.3024   -3.8067    1.1885 H   0  0  0  0  0  0  0  0  0  0  0  0
   -3.3930   -1.6070    2.4662 C   0  0  0  0  0  0  0  0  0  0  0  0
   -3.6996   -0.5433    2.4845 H   0  0  0  0  0  0  0  0  0  0  0  0
   -4.1368   -2.1694    1.8687 H   0  0  0  0  0  0  0  0  0  0  0  0
   -3.4163   -1.9938    3.5050 H   0  0  0  0  0  0  0  0  0  0  0  0
   -3.0507    2.5871    0.9228 C   0  0  0  0  0  0  0  0  0  0  0  0
   -2.0657    3.5167    1.6422 C   0  0  0  0  0  0  0  0  0  0  0  0
   -2.5121    4.5182    1.8047 H   0  0  0  0  0  0  0  0  0  0  0  0
   -1.7947    3.0903    2.6294 H   0  0  0  0  0  0  0  0  0  0  0  0
   -1.1408    3.6369    1.0440 H   0  0  0  0  0  0  0  0  0  0  0  0
   -3.3781    3.1378   -0.4723 C   0  0  0  0  0  0  0  0  0  0  0  0
   -3.8249    4.1494   -0.3929 H   0  0  0  0  0  0  0  0  0  0  0  0
   -2.4640    3.1967   -1.0943 H   0  0  0  0  0  0  0  0  0  0  0  0
   -4.1018    2.4791   -0.9912 H   0  0  0  0  0  0  0  0  0  0  0  0
   -4.3314    2.4100    1.7523 C   0  0  0  0  0  0  0  0  0  0  0  0
   -4.8693    3.3732    1.8648 H   0  0  0  0  0  0  0  0  0  0  0  0
   -4.9988    1.6791    1.2570 H   0  0  0  0  0  0  0  0  0  0  0  0
   -4.0837    2.0296    2.7640 H   0  0  0  0  0  0  0  0  0  0  0  0
  1  2  1  0  0  0  0
  2  4  1  0  0  0  0
  2  5  1  0  0  0  0
  3  2  1  0  0  0  0
  4 19  1  0  0  0  0
  5 32  1  0  0  0  0
  6 15  1  0  0  0  0
  6  3  1  0  0  0  0
  7  8  1  0  0  0  0
  7  6  1  0  0  0  0
  9  7  1  0  0  0  0
 10  7  1  0  0  0  0
 11  6  1  0  0  0  0
 11 13  1  0  0  0  0
 12 11  1  0  0  0  0
 14 11  1  0  0  0  0
 15 16  1  0  0  0  0
 15 18  1  0  0  0  0
 17 15  1  0  0  0  0
 19 28  1  0  0  0  0
 19 20  1  0  0  0  0
 20 22  1  0  0  0  0
 20 23  1  0  0  0  0
 21 20  1  0  0  0  0
 24 19  1  0  0  0  0
 24 26  1  0  0  0  0
 25 24  1  0  0  0  0
 27 24  1  0  0  0  0
 28 29  1  0  0  0  0
 28 31  1  0  0  0  0
 30 28  1  0  0  0  0
 32 33  1  0  0  0  0
 32 41  1  0  0  0  0
 33 34  1  0  0  0  0
 33 35  1  0  0  0  0
 36 33  1  0  0  0  0
 37 38  1  0  0  0  0
 37 32  1  0  0  0  0
 39 37  1  0  0  0  0
 40 37  1  0  0  0  0
 41 42  1  0  0  0  0
 41 44  1  0  0  0  0
 43 41  1  0  0  0  0
M  END
