1
 OpenBabel05122313063D

 35 34  0  0  0  0  0  0  0  0999 V2000
    2.2280   -0.0572   -1.9419 S   0  0  0  0  0  1  0  0  0  0  0  0
    2.9469    0.0892    0.0670 Si  0  0  0  0  0  0  0  0  0  0  0  0
    2.8526   -1.3257    0.9529 O   0  0  0  0  0  0  0  0  0  0  0  0
    2.1387    1.2481    0.9821 O   0  0  0  0  0  0  0  0  0  0  0  0
    4.5497    0.5669    0.0545 O   0  0  0  0  0  0  0  0  0  0  0  0
    1.9851   -2.4490    0.7793 C   0  0  0  0  0  0  0  0  0  0  0  0
    1.0024   -2.0954    0.3755 H   0  0  0  0  0  0  0  0  0  0  0  0
    1.7495   -3.0701    2.1518 C   0  0  0  0  0  0  0  0  0  0  0  0
    1.3044   -2.3280    2.8421 H   0  0  0  0  0  0  0  0  0  0  0  0
    1.0621   -3.9371    2.0794 H   0  0  0  0  0  0  0  0  0  0  0  0
    2.7101   -3.4171    2.5848 H   0  0  0  0  0  0  0  0  0  0  0  0
    2.5913   -3.4269   -0.2246 C   0  0  0  0  0  0  0  0  0  0  0  0
    2.7279   -2.9282   -1.2047 H   0  0  0  0  0  0  0  0  0  0  0  0
    3.5792   -3.7822    0.1353 H   0  0  0  0  0  0  0  0  0  0  0  0
    1.9333   -4.3086   -0.3674 H   0  0  0  0  0  0  0  0  0  0  0  0
    2.1262    2.6336    0.5839 C   0  0  0  0  0  0  0  0  0  0  0  0
    2.3092    2.6920   -0.5157 H   0  0  0  0  0  0  0  0  0  0  0  0
    0.7392    3.1999    0.8689 C   0  0  0  0  0  0  0  0  0  0  0  0
   -0.0341    2.6558    0.2904 H   0  0  0  0  0  0  0  0  0  0  0  0
    0.4950    3.1071    1.9476 H   0  0  0  0  0  0  0  0  0  0  0  0
    0.6863    4.2721    0.5919 H   0  0  0  0  0  0  0  0  0  0  0  0
    3.2434    3.3738    1.3149 C   0  0  0  0  0  0  0  0  0  0  0  0
    4.2189    2.9053    1.0817 H   0  0  0  0  0  0  0  0  0  0  0  0
    3.2757    4.4412    1.0147 H   0  0  0  0  0  0  0  0  0  0  0  0
    3.0827    3.3216    2.4116 H   0  0  0  0  0  0  0  0  0  0  0  0
    5.5702   -0.1723   -0.6346 C   0  0  0  0  0  0  0  0  0  0  0  0
    5.0975   -0.7994   -1.4292 H   0  0  0  0  0  0  0  0  0  0  0  0
    6.5023    0.8301   -1.3061 C   0  0  0  0  0  0  0  0  0  0  0  0
    5.9361    1.4665   -2.0140 H   0  0  0  0  0  0  0  0  0  0  0  0
    6.9681    1.4878   -0.5433 H   0  0  0  0  0  0  0  0  0  0  0  0
    7.3093    0.3128   -1.8634 H   0  0  0  0  0  0  0  0  0  0  0  0
    6.2811   -1.0901    0.3580 C   0  0  0  0  0  0  0  0  0  0  0  0
    5.5489   -1.7709    0.8343 H   0  0  0  0  0  0  0  0  0  0  0  0
    7.0620   -1.6961   -0.1452 H   0  0  0  0  0  0  0  0  0  0  0  0
    6.7619   -0.4878    1.1561 H   0  0  0  0  0  0  0  0  0  0  0  0
  1  2  1  0  0  0  0
  2  3  1  0  0  0  0
  2  4  1  0  0  0  0
  5  2  1  0  0  0  0
  6  3  1  0  0  0  0
  6  8  1  0  0  0  0
  7  6  1  0  0  0  0
  8 11  1  0  0  0  0
  8  9  1  0  0  0  0
 10  8  1  0  0  0  0
 12 14  1  0  0  0  0
 12  6  1  0  0  0  0
 13 12  1  0  0  0  0
 15 12  1  0  0  0  0
 16 18  1  0  0  0  0
 16  4  1  0  0  0  0
 16 22  1  0  0  0  0
 17 16  1  0  0  0  0
 18 20  1  0  0  0  0
 19 18  1  0  0  0  0
 21 18  1  0  0  0  0
 22 25  1  0  0  0  0
 23 22  1  0  0  0  0
 24 22  1  0  0  0  0
 26  5  1  0  0  0  0
 26 32  1  0  0  0  0
 27 26  1  0  0  0  0
 28 26  1  0  0  0  0
 28 30  1  0  0  0  0
 29 28  1  0  0  0  0
 31 28  1  0  0  0  0
 32 33  1  0  0  0  0
 32 35  1  0  0  0  0
 34 32  1  0  0  0  0
M  END
