3
 OpenBabel05122313063D

 22 22  0  0  0  0  0  0  0  0999 V2000
    3.9825   -0.0377   -0.7332 N   0  0  0  0  0  0  0  0  0  0  0  0
    7.4993    1.4944    0.6082 O   0  0  0  0  0  0  0  0  0  0  0  0
    0.5312   -2.2485   -0.0053 S   0  0  0  0  0  1  0  0  0  0  0  0
    2.2198   -1.5630    0.2783 C   0  0  0  0  0  0  0  0  0  0  0  0
    2.2016   -0.9612    1.2115 H   0  0  0  0  0  0  0  0  0  0  0  0
    2.8730   -2.4423    0.4565 H   0  0  0  0  0  0  0  0  0  0  0  0
    2.7113   -0.7214   -0.9142 C   0  0  0  0  0  0  0  0  0  0  0  0
    2.7839   -1.3723   -1.8121 H   0  0  0  0  0  0  0  0  0  0  0  0
    1.9382    0.0433   -1.1435 H   0  0  0  0  0  0  0  0  0  0  0  0
    3.9857    1.0218    0.2630 C   0  0  0  0  0  0  0  0  0  0  0  0
    4.0236    0.6257    1.3132 H   0  0  0  0  0  0  0  0  0  0  0  0
    3.0368    1.5907    0.1817 H   0  0  0  0  0  0  0  0  0  0  0  0
    5.1935    1.9521    0.0497 C   0  0  0  0  0  0  0  0  0  0  0  0
    5.0724    2.4653   -0.9297 H   0  0  0  0  0  0  0  0  0  0  0  0
    5.2752    2.7189    0.8441 H   0  0  0  0  0  0  0  0  0  0  0  0
    6.4966    1.1657   -0.0057 C   0  0  0  0  0  0  0  0  0  0  0  0
    6.4351   -0.0716   -0.8924 C   0  0  0  0  0  0  0  0  0  0  0  0
    7.3523   -0.6703   -0.7313 H   0  0  0  0  0  0  0  0  0  0  0  0
    6.4206    0.2789   -1.9478 H   0  0  0  0  0  0  0  0  0  0  0  0
    5.1557   -0.8897   -0.6365 C   0  0  0  0  0  0  0  0  0  0  0  0
    5.0695   -1.7025   -1.3874 H   0  0  0  0  0  0  0  0  0  0  0  0
    5.2462   -1.3878    0.3665 H   0  0  0  0  0  0  0  0  0  0  0  0
  1 20  1  0  0  0  0
  1 10  1  0  0  0  0
  3  4  1  0  0  0  0
  4  6  1  0  0  0  0
  4  5  1  0  0  0  0
  7  1  1  0  0  0  0
  7  4  1  0  0  0  0
  8  7  1  0  0  0  0
  9  7  1  0  0  0  0
 10 11  1  0  0  0  0
 12 10  1  0  0  0  0
 13 10  1  0  0  0  0
 13 15  1  0  0  0  0
 14 13  1  0  0  0  0
 16 13  1  0  0  0  0
 16  2  2  0  0  0  0
 17 18  1  0  0  0  0
 17 20  1  0  0  0  0
 17 16  1  0  0  0  0
 19 17  1  0  0  0  0
 20 22  1  0  0  0  0
 21 20  1  0  0  0  0
M  END
