1
 OpenBabel05122313063D

  9  8  0  0  1  0  0  0  0  0999 V2000
    1.7773    1.2065    0.0014 S   0  0  0  0  0  1  0  0  0  0  0  0
    3.0579    0.1097    0.0007 C   0  0  2  0  0  3  0  0  0  0  0  0
    4.4735    0.6185   -0.0004 C   0  0  0  0  0  0  0  0  0  0  0  0
    4.4905    1.7217    0.0073 H   0  0  0  0  0  0  0  0  0  0  0  0
    5.0131    0.2587   -0.9019 H   0  0  0  0  0  0  0  0  0  0  0  0
    5.0199    0.2456    0.8916 H   0  0  0  0  0  0  0  0  0  0  0  0
    2.8772   -1.2166    0.0003 N   0  0  0  0  0  0  0  0  0  0  0  0
    3.6638   -1.8672   -0.0002 H   0  0  0  0  0  0  0  0  0  0  0  0
    1.9163   -1.5811    0.0000 H   0  0  0  0  0  0  0  0  0  0  0  0
  2  1  1  6  0  0  0
  3  2  1  0  0  0  0
  3  4  1  0  0  0  0
  3  6  1  0  0  0  0
  5  3  1  0  0  0  0
  7  2  1  0  0  0  0
  8  7  1  0  0  0  0
  9  7  1  0  0  0  0
M  END
