1
 OpenBabel05122313063D

 19 19  0  0  0  0  0  0  0  0999 V2000
    1.9567   -2.6721    0.0199 S   0  0  0  0  0  1  0  0  0  0  0  0
    3.4558   -0.4069   -1.2440 N   0  0  0  0  0  0  0  0  0  0  0  0
    2.7922   -1.1348   -1.5470 H   0  0  0  0  0  0  0  0  0  0  0  0
    4.7029    1.4097   -1.9389 O   0  0  0  0  0  0  0  0  0  0  0  0
    3.0443   -1.5093    0.8606 C   0  0  0  0  0  0  0  0  0  0  0  0
    3.2747   -1.6231    2.2428 C   0  0  0  0  0  0  0  0  0  0  0  0
    2.7494   -2.4138    2.7989 H   0  0  0  0  0  0  0  0  0  0  0  0
    4.1560   -0.7541    2.9033 C   0  0  0  0  0  0  0  0  0  0  0  0
    4.3191   -0.8579    3.9866 H   0  0  0  0  0  0  0  0  0  0  0  0
    4.8286    0.2361    2.1714 C   0  0  0  0  0  0  0  0  0  0  0  0
    5.5253    0.9213    2.6779 H   0  0  0  0  0  0  0  0  0  0  0  0
    4.6229    0.3683    0.7925 C   0  0  0  0  0  0  0  0  0  0  0  0
    5.1350    1.1359    0.2001 H   0  0  0  0  0  0  0  0  0  0  0  0
    3.7285   -0.4955    0.1243 C   0  0  0  0  0  0  0  0  0  0  0  0
    3.8906    0.5170   -2.1714 C   0  0  0  0  0  0  0  0  0  0  0  0
    3.2198    0.3682   -3.5320 C   0  0  0  0  0  0  0  0  0  0  0  0
    3.9152    0.7235   -4.3137 H   0  0  0  0  0  0  0  0  0  0  0  0
    2.9038   -0.6706   -3.7539 H   0  0  0  0  0  0  0  0  0  0  0  0
    2.3204    1.0187   -3.5548 H   0  0  0  0  0  0  0  0  0  0  0  0
  1  5  1  0  0  0  0
  2 14  1  0  0  0  0
  3  2  1  0  0  0  0
  5  6  1  0  0  0  0
  6  7  1  0  0  0  0
  6  8  2  0  0  0  0
  8  9  1  0  0  0  0
 10 11  1  0  0  0  0
 10  8  1  0  0  0  0
 12 10  2  0  0  0  0
 13 12  1  0  0  0  0
 14 12  1  0  0  0  0
 14  5  2  0  0  0  0
 15  4  2  0  0  0  0
 15  2  1  0  0  0  0
 16 15  1  0  0  0  0
 17 16  1  0  0  0  0
 18 16  1  0  0  0  0
 19 16  1  0  0  0  0
M  END
