1
 OpenBabel05122313063D

 15 14  0  0  0  0  0  0  0  0999 V2000
   -2.1718   -0.4578   -0.3867 S   0  0  0  0  0  1  0  0  0  0  0  0
   -2.6030   -1.9054    0.4606 C   0  0  0  0  0  0  0  0  0  0  0  0
   -2.0472   -2.2321    1.6384 N   0  0  0  0  0  4  0  0  0  0  0  0
   -2.2600   -3.1185    2.0995 H   0  0  0  0  0  0  0  0  0  0  0  0
   -1.4057   -1.5734    2.1140 H   0  0  0  0  0  0  0  0  0  0  0  0
   -3.5382   -2.7262   -0.0592 N   0  0  0  0  0  0  0  0  0  0  0  0
   -3.9041   -3.4655    0.5481 H   0  0  0  0  0  0  0  0  0  0  0  0
   -4.2425   -2.5412   -1.3311 C   0  0  0  0  0  0  0  0  0  0  0  0
   -3.5999   -1.8840   -1.9534 H   0  0  0  0  0  0  0  0  0  0  0  0
   -4.3105   -3.5269   -1.8357 H   0  0  0  0  0  0  0  0  0  0  0  0
   -5.6096   -1.9383   -1.1467 C   0  0  0  0  0  0  0  0  0  0  0  0
   -5.6294   -0.9386   -0.6772 H   0  0  0  0  0  0  0  0  0  0  0  0
   -6.7518   -2.5373   -1.5212 C   0  0  0  0  0  0  0  0  0  0  0  0
   -6.7522   -3.5330   -1.9964 H   0  0  0  0  0  0  0  0  0  0  0  0
   -7.7291   -2.0502   -1.3829 H   0  0  0  0  0  0  0  0  0  0  0  0
  1  2  1  0  0  0  0
  2  3  2  0  0  0  0
  3  4  1  0  0  0  0
  3  5  1  0  0  0  0
  6  2  1  0  0  0  0
  6  7  1  0  0  0  0
  8 11  1  0  0  0  0
  8  6  1  0  0  0  0
  9  8  1  0  0  0  0
 10  8  1  0  0  0  0
 11 12  1  0  0  0  0
 13 15  1  0  0  0  0
 13 11  2  0  0  0  0
 14 13  1  0  0  0  0
M  END
