1
 OpenBabel05122313063D

 31 31  0  0  1  0  0  0  0  0999 V2000
   -1.8969   -0.8714   -0.0013 S   0  0  0  0  0  1  0  0  0  0  0  0
   -7.4283   -4.9451    0.0002 O   0  0  0  0  0  0  0  0  0  0  0  0
   -5.1560    2.4143    0.0005 O   0  0  0  0  0  0  0  0  0  0  0  0
   -3.3298    3.7733    0.0002 O   0  0  0  0  0  0  0  0  0  0  0  0
   -4.5291   -0.1542   -0.0003 N   0  0  0  0  0  0  0  0  0  0  0  0
   -5.1520    0.6857    0.0000 H   0  0  0  0  0  0  0  0  0  0  0  0
   -2.9864    1.5696   -0.0005 N   0  0  0  0  0  0  0  0  0  0  0  0
   -1.9761    1.8674   -0.0007 H   0  0  0  0  0  0  0  0  0  0  0  0
   -8.8421   -4.9264    0.0008 C   0  0  0  0  0  0  0  0  0  0  0  0
   -9.2514   -4.4217    0.9052 H   0  0  0  0  0  0  0  0  0  0  0  0
   -9.1704   -5.9824    0.0008 H   0  0  0  0  0  0  0  0  0  0  0  0
   -9.2522   -4.4215   -0.9032 H   0  0  0  0  0  0  0  0  0  0  0  0
   -6.7672   -3.7553    0.0001 C   0  0  0  0  0  0  0  0  0  0  0  0
   -5.3581   -3.8211   -0.0005 C   0  0  0  0  0  0  0  0  0  0  0  0
   -4.8840   -4.8132   -0.0008 H   0  0  0  0  0  0  0  0  0  0  0  0
   -4.5779   -2.6642   -0.0007 C   0  0  0  0  0  0  0  0  0  0  0  0
   -3.4841   -2.7369   -0.0011 H   0  0  0  0  0  0  0  0  0  0  0  0
   -5.1972   -1.3926   -0.0002 C   0  0  0  0  0  0  0  0  0  0  0  0
   -6.6080   -1.3304    0.0003 C   0  0  0  0  0  0  0  0  0  0  0  0
   -7.1039   -0.3468    0.0007 H   0  0  0  0  0  0  0  0  0  0  0  0
   -7.3911   -2.4901    0.0005 C   0  0  0  0  0  0  0  0  0  0  0  0
   -8.4847   -2.3938    0.0009 H   0  0  0  0  0  0  0  0  0  0  0  0
   -3.2268    0.2018   -0.0007 C   0  0  1  0  0  3  0  0  0  0  0  0
   -3.9320    2.5770    0.0001 C   0  0  0  0  0  0  0  0  0  0  0  0
   -4.1954    4.9283    0.0008 C   0  0  0  0  0  0  0  0  0  0  0  0
   -4.8548    4.8831   -0.8919 H   0  0  0  0  0  0  0  0  0  0  0  0
   -4.8546    4.8824    0.8935 H   0  0  0  0  0  0  0  0  0  0  0  0
   -3.3088    6.1557    0.0011 C   0  0  0  0  0  0  0  0  0  0  0  0
   -2.6581    6.1718    0.8974 H   0  0  0  0  0  0  0  0  0  0  0  0
   -3.9316    7.0718    0.0015 H   0  0  0  0  0  0  0  0  0  0  0  0
   -2.6583    6.1724   -0.8952 H   0  0  0  0  0  0  0  0  0  0  0  0
  2  9  1  0  0  0  0
  4 25  1  0  0  0  0
  5 18  1  0  0  0  0
  5  6  1  0  0  0  0
  7 24  1  0  0  0  0
  8  7  1  0  0  0  0
  9 11  1  0  0  0  0
  9 10  1  0  0  0  0
 12  9  1  0  0  0  0
 13  2  1  0  0  0  0
 13 21  1  0  0  0  0
 14 13  2  0  0  0  0
 15 14  1  0  0  0  0
 16 14  1  0  0  0  0
 16 18  2  0  0  0  0
 17 16  1  0  0  0  0
 18 19  1  0  0  0  0
 19 21  2  0  0  0  0
 19 20  1  0  0  0  0
 21 22  1  0  0  0  0
 23  1  1  1  0  0  0
 23  7  1  0  0  0  0
 23  5  1  0  0  0  0
 24  4  1  0  0  0  0
 24  3  2  0  0  0  0
 25 28  1  0  0  0  0
 25 27  1  0  0  0  0
 26 25  1  0  0  0  0
 28 30  1  0  0  0  0
 28 29  1  0  0  0  0
 31 28  1  0  0  0  0
M  END
