7
 OpenBabel05122313063D

 31 31  0  0  0  0  0  0  0  0999 V2000
   -0.1010    1.0686    1.7860 N   0  0  0  0  0  0  0  0  0  0  0  0
   -1.0771    1.3938    1.8303 H   0  0  0  0  0  0  0  0  0  0  0  0
   -0.4714   -1.8310    1.1158 N   0  0  0  0  0  0  0  0  0  0  0  0
   -1.3009   -2.3409    0.7874 H   0  0  0  0  0  0  0  0  0  0  0  0
    1.5388   -1.5462   -1.0916 N   0  0  0  0  0  0  0  0  0  0  0  0
    1.4948   -1.6523   -2.1134 H   0  0  0  0  0  0  0  0  0  0  0  0
    1.8607    1.7266   -0.7424 S   0  0  0  0  0  0  0  0  0  0  0  0
    2.1517    1.9006    1.0686 C   0  0  0  0  0  0  0  0  0  0  0  0
    2.6458    0.9799    1.4395 H   0  0  0  0  0  0  0  0  0  0  0  0
    2.8539    2.7455    1.2095 H   0  0  0  0  0  0  0  0  0  0  0  0
    0.8467    2.1806    1.8304 C   0  0  0  0  0  0  0  0  0  0  0  0
    1.1243    2.4435    2.8774 H   0  0  0  0  0  0  0  0  0  0  0  0
    0.3536    3.0769    1.4023 H   0  0  0  0  0  0  0  0  0  0  0  0
    0.1200   -0.0190    2.7447 C   0  0  0  0  0  0  0  0  0  0  0  0
   -0.0954    0.3068    3.7879 H   0  0  0  0  0  0  0  0  0  0  0  0
    1.1972   -0.2906    2.7235 H   0  0  0  0  0  0  0  0  0  0  0  0
   -0.7468   -1.2469    2.4384 C   0  0  0  0  0  0  0  0  0  0  0  0
   -0.6030   -1.9912    3.2539 H   0  0  0  0  0  0  0  0  0  0  0  0
   -1.8135   -0.9466    2.4434 H   0  0  0  0  0  0  0  0  0  0  0  0
    0.7249   -2.6682    1.0062 C   0  0  0  0  0  0  0  0  0  0  0  0
    0.5680   -3.6845    1.4334 H   0  0  0  0  0  0  0  0  0  0  0  0
    1.5290   -2.2048    1.6147 H   0  0  0  0  0  0  0  0  0  0  0  0
    1.1933   -2.8265   -0.4468 C   0  0  0  0  0  0  0  0  0  0  0  0
    2.0538   -3.5331   -0.4654 H   0  0  0  0  0  0  0  0  0  0  0  0
    0.3835   -3.2910   -1.0459 H   0  0  0  0  0  0  0  0  0  0  0  0
    2.8324   -0.9795   -0.7024 C   0  0  0  0  0  0  0  0  0  0  0  0
    3.6783   -1.6141   -1.0575 H   0  0  0  0  0  0  0  0  0  0  0  0
    2.8936   -0.9804    0.4056 H   0  0  0  0  0  0  0  0  0  0  0  0
    3.0663    0.4342   -1.2369 C   0  0  0  0  0  0  0  0  0  0  0  0
    3.0280    0.4585   -2.3463 H   0  0  0  0  0  0  0  0  0  0  0  0
    4.0759    0.7868   -0.9466 H   0  0  0  0  0  0  0  0  0  0  0  0
  1  2  1  0  0  0  0
  1 11  1  0  0  0  0
  1 14  1  0  0  0  0
  3 17  1  0  0  0  0
  4  3  1  0  0  0  0
  5 26  1  0  0  0  0
  5 23  1  0  0  0  0
  6  5  1  0  0  0  0
  7  8  1  0  0  0  0
  8 10  1  0  0  0  0
  8  9  1  0  0  0  0
  8 11  1  0  0  0  0
 11 12  1  0  0  0  0
 13 11  1  0  0  0  0
 14 15  1  0  0  0  0
 16 14  1  0  0  0  0
 17 19  1  0  0  0  0
 17 14  1  0  0  0  0
 17 18  1  0  0  0  0
 20  3  1  0  0  0  0
 20 21  1  0  0  0  0
 20 22  1  0  0  0  0
 23 20  1  0  0  0  0
 24 23  1  0  0  0  0
 25 23  1  0  0  0  0
 26 28  1  0  0  0  0
 27 26  1  0  0  0  0
 29 31  1  0  0  0  0
 29  7  1  0  0  0  0
 29 26  1  0  0  0  0
 30 29  1  0  0  0  0
M  END
