1
 OpenBabel05122313063D

 16 16  0  0  0  0  0  0  0  0999 V2000
   -0.3778   -1.1433    1.7248 S   0  0  0  0  0  1  0  0  0  0  0  0
   -2.8959   -1.0827    2.5417 O   0  0  0  0  0  0  0  0  0  0  0  0
   -2.6182   -0.6166    0.2905 N   0  0  0  0  0  0  0  0  0  0  0  0
   -2.1927   -0.9185    1.5550 C   0  0  0  0  0  0  0  0  0  0  0  0
   -3.9314   -0.3707   -0.1410 C   0  0  0  0  0  0  0  0  0  0  0  0
   -4.1165   -0.1001   -1.5181 C   0  0  0  0  0  0  0  0  0  0  0  0
   -5.3928    0.1783   -2.0190 C   0  0  0  0  0  0  0  0  0  0  0  0
   -6.5065    0.1914   -1.1625 C   0  0  0  0  0  0  0  0  0  0  0  0
   -6.3219   -0.0830    0.2016 C   0  0  0  0  0  0  0  0  0  0  0  0
   -5.0507   -0.3654    0.7220 C   0  0  0  0  0  0  0  0  0  0  0  0
   -1.8785   -0.5373   -0.4324 H   0  0  0  0  0  0  0  0  0  0  0  0
   -3.2427   -0.1150   -2.1875 H   0  0  0  0  0  0  0  0  0  0  0  0
   -5.5176    0.3858   -3.0930 H   0  0  0  0  0  0  0  0  0  0  0  0
   -7.5100    0.4095   -1.5573 H   0  0  0  0  0  0  0  0  0  0  0  0
   -7.1866   -0.0812    0.8834 H   0  0  0  0  0  0  0  0  0  0  0  0
   -4.9025   -0.5883    1.7852 H   0  0  0  0  0  0  0  0  0  0  0  0
  3  4  1  0  0  0  0
  4  1  1  0  0  0  0
  4  2  2  0  0  0  0
  5  3  1  0  0  0  0
  5 10  1  0  0  0  0
  6  5  2  0  0  0  0
  7  6  1  0  0  0  0
  7  8  2  0  0  0  0
  8  9  1  0  0  0  0
  9 10  2  0  0  0  0
  9 15  1  0  0  0  0
 10 16  1  0  0  0  0
 11  3  1  0  0  0  0
 12  6  1  0  0  0  0
 13  7  1  0  0  0  0
 14  8  1  0  0  0  0
M  END
