1
 OpenBabel05122313063D

 15 15  0  0  0  0  0  0  0  0999 V2000
   -0.0183    0.2823   -1.8966 S   0  0  0  0  0  1  0  0  0  0  0  0
   -1.7671    0.4612   -1.6340 C   0  0  0  0  0  0  0  0  0  0  0  0
   -2.5591   -0.6409   -1.2409 C   0  0  0  0  0  0  0  0  0  0  0  0
   -2.0919   -1.6336   -1.1602 H   0  0  0  0  0  0  0  0  0  0  0  0
   -3.9268   -0.4972   -0.9412 C   0  0  0  0  0  0  0  0  0  0  0  0
   -4.5092    0.7829   -1.0736 C   0  0  0  0  0  0  0  0  0  0  0  0
   -5.5785    0.9173   -0.8469 H   0  0  0  0  0  0  0  0  0  0  0  0
   -3.7437    1.8771   -1.5033 C   0  0  0  0  0  0  0  0  0  0  0  0
   -4.2157    2.8654   -1.6135 H   0  0  0  0  0  0  0  0  0  0  0  0
   -2.3766    1.7261   -1.7766 C   0  0  0  0  0  0  0  0  0  0  0  0
   -1.7649    2.5861   -2.0864 H   0  0  0  0  0  0  0  0  0  0  0  0
   -4.7534   -1.6891   -0.5279 C   0  0  0  0  0  0  0  0  0  0  0  0
   -5.5396   -1.4088    0.2008 H   0  0  0  0  0  0  0  0  0  0  0  0
   -4.1271   -2.4841   -0.0769 H   0  0  0  0  0  0  0  0  0  0  0  0
   -5.2708   -2.1347   -1.4042 H   0  0  0  0  0  0  0  0  0  0  0  0
  1  2  1  0  0  0  0
  2  3  1  0  0  0  0
  3  4  1  0  0  0  0
  3  5  2  0  0  0  0
  5 12  1  0  0  0  0
  6  5  1  0  0  0  0
  6  7  1  0  0  0  0
  8  6  2  0  0  0  0
  9  8  1  0  0  0  0
 10  2  2  0  0  0  0
 10  8  1  0  0  0  0
 11 10  1  0  0  0  0
 12 14  1  0  0  0  0
 12 13  1  0  0  0  0
 15 12  1  0  0  0  0
M  END
