1
 OpenBabel05122313063D

 38 39  0  0  1  0  0  0  0  0999 V2000
   -1.6670   -2.1910    0.1247 S   0  0  0  0  0  1  0  0  0  0  0  0
    0.1293    3.6594   -1.5183 N   0  0  0  0  0  0  0  0  0  0  0  0
   -1.4426    0.4469   -1.4269 N   0  0  0  0  0  0  0  0  0  0  0  0
   -2.6796   -0.0670   -1.3564 N   0  0  0  0  0  2  0  0  0  0  0  0
   -4.0579   -1.8788   -1.0752 N   0  0  0  0  0  0  0  0  0  0  0  0
    1.3437    4.2022   -1.6774 C   0  0  0  0  0  0  0  0  0  0  0  0
    1.4178    5.2907   -1.4948 H   0  0  0  0  0  0  0  0  0  0  0  0
    2.4847    3.4748   -2.0519 C   0  0  0  0  0  0  0  0  0  0  0  0
    3.4573    3.9768   -2.1639 H   0  0  0  0  0  0  0  0  0  0  0  0
    2.3343    2.0965   -2.2871 C   0  0  0  0  0  0  0  0  0  0  0  0
    3.1942    1.4796   -2.5915 H   0  0  0  0  0  0  0  0  0  0  0  0
    1.0749    1.5150   -2.1396 C   0  0  0  0  0  0  0  0  0  0  0  0
    0.9088    0.4432   -2.3145 H   0  0  0  0  0  0  0  0  0  0  0  0
   -0.0167    2.3287   -1.7355 C   0  0  0  0  0  0  0  0  0  0  0  0
   -1.3624    1.7557   -1.5426 C   0  0  0  0  0  0  0  0  0  0  0  0
   -2.5617    2.6549   -1.4586 C   0  0  0  0  0  0  0  0  0  0  0  0
   -3.0931    2.4939   -0.4969 H   0  0  0  0  0  0  0  0  0  0  0  0
   -3.2893    2.3965   -2.2567 H   0  0  0  0  0  0  0  0  0  0  0  0
   -2.2555    3.7122   -1.5406 H   0  0  0  0  0  0  0  0  0  0  0  0
   -2.8372   -1.2854   -0.8526 C   0  0  2  0  0  3  0  0  0  0  0  0
   -5.0750   -1.1641   -1.8437 C   0  0  0  0  0  0  0  0  0  0  0  0
   -5.7926   -1.9359   -2.1901 H   0  0  0  0  0  0  0  0  0  0  0  0
   -4.5955   -0.7218   -2.7380 H   0  0  0  0  0  0  0  0  0  0  0  0
   -5.8207   -0.0629   -1.0626 C   0  0  0  0  0  0  0  0  0  0  0  0
   -5.2697    0.8920   -1.1750 H   0  0  0  0  0  0  0  0  0  0  0  0
   -6.8120    0.0778   -1.5462 H   0  0  0  0  0  0  0  0  0  0  0  0
   -6.0063   -0.3440    0.4379 C   0  0  0  0  0  0  0  0  0  0  0  0
   -6.7554    0.3760    0.8297 H   0  0  0  0  0  0  0  0  0  0  0  0
   -5.0582   -0.1017    0.9661 H   0  0  0  0  0  0  0  0  0  0  0  0
   -6.4181   -1.7775    0.8281 C   0  0  0  0  0  0  0  0  0  0  0  0
   -6.9343   -1.7442    1.8107 H   0  0  0  0  0  0  0  0  0  0  0  0
   -7.1743   -2.1675    0.1088 H   0  0  0  0  0  0  0  0  0  0  0  0
   -5.2428   -2.7609    0.9501 C   0  0  0  0  0  0  0  0  0  0  0  0
   -4.5042   -2.3544    1.6758 H   0  0  0  0  0  0  0  0  0  0  0  0
   -5.5977   -3.7241    1.3768 H   0  0  0  0  0  0  0  0  0  0  0  0
   -4.5037   -3.0684   -0.3586 C   0  0  0  0  0  0  0  0  0  0  0  0
   -3.6247   -3.7118   -0.1563 H   0  0  0  0  0  0  0  0  0  0  0  0
   -5.1690   -3.6335   -1.0468 H   0  0  0  0  0  0  0  0  0  0  0  0
  3  4  1  0  0  0  0
  4 20  1  0  0  0  0
  5 20  1  0  0  0  0
  5 36  1  0  0  0  0
  6  2  1  0  0  0  0
  6  7  1  0  0  0  0
  8  6  2  0  0  0  0
  9  8  1  0  0  0  0
 10 12  2  0  0  0  0
 10  8  1  0  0  0  0
 11 10  1  0  0  0  0
 12 14  1  0  0  0  0
 13 12  1  0  0  0  0
 14 15  1  0  0  0  0
 14  2  2  0  0  0  0
 15 16  1  0  0  0  0
 15  3  2  0  0  0  0
 16 17  1  0  0  0  0
 18 16  1  0  0  0  0
 19 16  1  0  0  0  0
 20  1  1  1  0  0  0
 21  5  1  0  0  0  0
 21 24  1  0  0  0  0
 22 21  1  0  0  0  0
 23 21  1  0  0  0  0
 24 27  1  0  0  0  0
 25 24  1  0  0  0  0
 26 24  1  0  0  0  0
 27 30  1  0  0  0  0
 27 28  1  0  0  0  0
 27 29  1  0  0  0  0
 30 33  1  0  0  0  0
 30 31  1  0  0  0  0
 32 30  1  0  0  0  0
 33 35  1  0  0  0  0
 33 34  1  0  0  0  0
 36 37  1  0  0  0  0
 36 33  1  0  0  0  0
 38 36  1  0  0  0  0
M  END
