1
 OpenBabel05122313063D

 28 29  0  0  1  0  0  0  0  0999 V2000
    2.5064    1.0690   -1.0302 S   0  0  0  0  0  1  0  0  0  0  0  0
    7.4780    1.0630    0.3578 O   0  0  0  0  0  0  0  0  0  0  0  0
    4.7271    0.3840    0.3227 N   0  0  0  0  0  0  0  0  0  0  0  0
    3.1788   -1.3145    0.2706 N   0  0  0  0  0  2  0  0  0  0  0  0
    3.4912   -0.0988   -0.0663 C   0  0  2  0  0  3  0  0  0  0  0  0
    5.1443    1.7772    0.3035 C   0  0  0  0  0  0  0  0  0  0  0  0
    5.1805    2.1693    1.3488 H   0  0  0  0  0  0  0  0  0  0  0  0
    4.4033    2.3715   -0.2638 H   0  0  0  0  0  0  0  0  0  0  0  0
    6.5381    1.8855   -0.3168 C   0  0  0  0  0  0  0  0  0  0  0  0
    6.4748    1.6018   -1.3975 H   0  0  0  0  0  0  0  0  0  0  0  0
    6.9141    2.9262   -0.2473 H   0  0  0  0  0  0  0  0  0  0  0  0
    7.0693   -0.2966    0.3327 C   0  0  0  0  0  0  0  0  0  0  0  0
    7.8391   -0.8727    0.8851 H   0  0  0  0  0  0  0  0  0  0  0  0
    7.0361   -0.6726   -0.7208 H   0  0  0  0  0  0  0  0  0  0  0  0
    5.6940   -0.4925    0.9729 C   0  0  0  0  0  0  0  0  0  0  0  0
    5.3335   -1.5335    0.8746 H   0  0  0  0  0  0  0  0  0  0  0  0
    5.7515   -0.2463    2.0599 H   0  0  0  0  0  0  0  0  0  0  0  0
    2.1796   -2.1149   -0.2387 C   0  0  0  0  0  0  0  0  0  0  0  0
    1.4827   -2.9750    0.6525 C   0  0  0  0  0  0  0  0  0  0  0  0
    1.7396   -2.9195    1.7210 H   0  0  0  0  0  0  0  0  0  0  0  0
    0.5204   -3.8794    0.1871 C   0  0  0  0  0  0  0  0  0  0  0  0
    0.0023   -4.5361    0.9044 H   0  0  0  0  0  0  0  0  0  0  0  0
    0.2327   -3.9729   -1.1856 C   0  0  0  0  0  0  0  0  0  0  0  0
   -0.5022   -4.7038   -1.5551 H   0  0  0  0  0  0  0  0  0  0  0  0
    0.9227   -3.1377   -2.0835 C   0  0  0  0  0  0  0  0  0  0  0  0
    0.7192   -3.2092   -3.1641 H   0  0  0  0  0  0  0  0  0  0  0  0
    1.8718   -2.2155   -1.6259 C   0  0  0  0  0  0  0  0  0  0  0  0
    2.4062   -1.5673   -2.3344 H   0  0  0  0  0  0  0  0  0  0  0  0
  3 15  1  0  0  0  0
  5  1  1  6  0  0  0
  5  4  1  0  0  0  0
  5  3  1  0  0  0  0
  6  3  1  0  0  0  0
  6  7  1  0  0  0  0
  8  6  1  0  0  0  0
  9 11  1  0  0  0  0
  9  6  1  0  0  0  0
  9  2  1  0  0  0  0
 10  9  1  0  0  0  0
 12  2  1  0  0  0  0
 12 13  1  0  0  0  0
 12 15  1  0  0  0  0
 14 12  1  0  0  0  0
 15 17  1  0  0  0  0
 16 15  1  0  0  0  0
 18  4  1  0  0  0  0
 18 19  1  0  0  0  0
 19 20  1  0  0  0  0
 21 19  2  0  0  0  0
 21 22  1  0  0  0  0
 23 21  1  0  0  0  0
 24 23  1  0  0  0  0
 25 27  1  0  0  0  0
 25 23  2  0  0  0  0
 26 25  1  0  0  0  0
 27 18  2  0  0  0  0
 28 27  1  0  0  0  0
M  END
