1
 OpenBabel05122313063D

 14 14  0  0  0  0  0  0  0  0999 V2000
    0.3146   -1.1030   -0.5054 S   0  0  0  0  0  1  0  0  0  0  0  0
    2.7857   -2.2224   -0.3464 O   0  0  0  0  0  0  0  0  0  0  0  0
    4.4448   -1.3820    0.8016 O   0  0  0  0  0  0  0  0  0  0  0  0
    3.3870   -1.2815    0.1757 N   0  0  0  0  0  0  0  0  0  0  0  0
    1.4290    0.2589   -0.2906 C   0  0  0  0  0  0  0  0  0  0  0  0
    2.8039    0.0665    0.0268 C   0  0  0  0  0  0  0  0  0  0  0  0
    3.6863    1.1435    0.2189 C   0  0  0  0  0  0  0  0  0  0  0  0
    3.2413    2.4575    0.0779 C   0  0  0  0  0  0  0  0  0  0  0  0
    1.8927    2.6835   -0.2519 C   0  0  0  0  0  0  0  0  0  0  0  0
    1.0165    1.6110   -0.4327 C   0  0  0  0  0  0  0  0  0  0  0  0
    4.7245    0.9017    0.4832 H   0  0  0  0  0  0  0  0  0  0  0  0
    3.9365    3.2976    0.2169 H   0  0  0  0  0  0  0  0  0  0  0  0
    1.5174    3.7101   -0.3804 H   0  0  0  0  0  0  0  0  0  0  0  0
   -0.0263    1.8180   -0.7173 H   0  0  0  0  0  0  0  0  0  0  0  0
  1  5  1  0  0  0  0
  2  4  2  0  0  0  0
  4  3  2  0  0  0  0
  5  6  1  0  0  0  0
  6  4  1  0  0  0  0
  6  7  2  0  0  0  0
  7 11  1  0  0  0  0
  8 12  1  0  0  0  0
  8  7  1  0  0  0  0
  9  8  2  0  0  0  0
 10  5  2  0  0  0  0
 10  9  1  0  0  0  0
 13  9  1  0  0  0  0
 14 10  1  0  0  0  0
M  END
