1
 OpenBabel05122313063D

 29 30  0  0  0  0  0  0  0  0999 V2000
   -0.1548   -0.6112   -1.2618 S   0  0  0  0  0  1  0  0  0  0  0  0
   -0.6450    1.1785    1.1383 S   0  0  0  0  0  0  0  0  0  0  0  0
    1.7326    0.8518   -0.0630 N   0  0  0  0  0  0  0  0  0  0  0  0
    6.7139   -3.5849    0.9898 Cl  0  0  0  0  0  0  0  0  0  0  0  0
    3.6629    3.4573   -0.1571 O   0  0  0  0  0  0  0  0  0  0  0  0
    0.4146    0.5301   -0.0311 C   0  0  0  0  0  0  0  0  0  0  0  0
    2.3248    1.7391    0.9556 C   0  0  0  0  0  0  0  0  0  0  0  0
    3.3119    1.3146    1.2315 H   0  0  0  0  0  0  0  0  0  0  0  0
    1.6590    1.7138    1.8385 H   0  0  0  0  0  0  0  0  0  0  0  0
    2.4870    3.1439    0.4864 C   0  0  0  0  0  0  0  0  0  0  0  0
    1.6596    4.2455    0.5010 C   0  0  0  0  0  0  0  0  0  0  0  0
    0.6540    4.2734    0.9340 H   0  0  0  0  0  0  0  0  0  0  0  0
    2.3716    5.2989   -0.1644 C   0  0  0  0  0  0  0  0  0  0  0  0
    2.0321    6.3261   -0.3370 H   0  0  0  0  0  0  0  0  0  0  0  0
    3.5803    4.7640   -0.5431 C   0  0  0  0  0  0  0  0  0  0  0  0
    4.4562    5.1652   -1.0626 H   0  0  0  0  0  0  0  0  0  0  0  0
    2.6626    0.4137   -1.1147 C   0  0  0  0  0  0  0  0  0  0  0  0
    3.1778    1.3152   -1.5051 H   0  0  0  0  0  0  0  0  0  0  0  0
    2.0615   -0.0137   -1.9406 H   0  0  0  0  0  0  0  0  0  0  0  0
    3.6792   -0.5860   -0.6083 C   0  0  0  0  0  0  0  0  0  0  0  0
    5.0317   -0.2262   -0.4598 C   0  0  0  0  0  0  0  0  0  0  0  0
    5.3528    0.7934   -0.7264 H   0  0  0  0  0  0  0  0  0  0  0  0
    5.9744   -1.1427    0.0293 C   0  0  0  0  0  0  0  0  0  0  0  0
    7.0307   -0.8629    0.1448 H   0  0  0  0  0  0  0  0  0  0  0  0
    5.5526   -2.4345    0.3795 C   0  0  0  0  0  0  0  0  0  0  0  0
    4.2050   -2.8138    0.2464 C   0  0  0  0  0  0  0  0  0  0  0  0
    3.8961   -3.8308    0.5259 H   0  0  0  0  0  0  0  0  0  0  0  0
    3.2775   -1.8881   -0.2450 C   0  0  0  0  0  0  0  0  0  0  0  0
    2.2195   -2.1761   -0.3532 H   0  0  0  0  0  0  0  0  0  0  0  0
  1  6  1  0  0  0  0
  3  6  1  0  0  0  0
  3  7  1  0  0  0  0
  5 10  1  0  0  0  0
  6  2  2  0  0  0  0
  7  8  1  0  0  0  0
  7  9  1  0  0  0  0
 10 11  2  0  0  0  0
 10  7  1  0  0  0  0
 11 12  1  0  0  0  0
 13 11  1  0  0  0  0
 14 13  1  0  0  0  0
 15 13  2  0  0  0  0
 15  5  1  0  0  0  0
 16 15  1  0  0  0  0
 17 20  1  0  0  0  0
 17  3  1  0  0  0  0
 18 17  1  0  0  0  0
 19 17  1  0  0  0  0
 20 21  2  0  0  0  0
 20 28  1  0  0  0  0
 21 23  1  0  0  0  0
 22 21  1  0  0  0  0
 23 24  1  0  0  0  0
 23 25  2  0  0  0  0
 25  4  1  0  0  0  0
 26 25  1  0  0  0  0
 26 27  1  0  0  0  0
 28 26  2  0  0  0  0
 29 28  1  0  0  0  0
M  END
