1
 OpenBabel05122313063D

 22 23  0  0  1  0  0  0  0  0999 V2000
    1.9407    0.5307    0.2363 S   0  0  0  0  0  1  0  0  0  0  0  0
    2.9323   -1.9880    0.1273 N   0  0  0  0  0  0  0  0  0  0  0  0
    1.9622   -2.3566   -0.0133 H   0  0  0  0  0  0  0  0  0  0  0  0
    4.5194   -0.4374    0.0149 N   0  0  0  0  0  0  0  0  0  0  0  0
    3.1530   -0.6566    0.1038 C   0  0  2  0  0  3  0  0  0  0  0  0
    4.1383   -2.7426   -0.1667 C   0  0  0  0  0  0  0  0  0  0  0  0
    4.1753   -3.0370   -1.2414 H   0  0  0  0  0  0  0  0  0  0  0  0
    4.2086   -3.6632    0.4448 H   0  0  0  0  0  0  0  0  0  0  0  0
    5.2260   -1.7168    0.1826 C   0  0  0  0  0  0  0  0  0  0  0  0
    5.5682   -1.8362    1.2361 H   0  0  0  0  0  0  0  0  0  0  0  0
    6.1118   -1.7646   -0.4795 H   0  0  0  0  0  0  0  0  0  0  0  0
    5.2167    0.7912    0.0080 C   0  0  0  0  0  0  0  0  0  0  0  0
    6.4970    0.8630    0.6016 C   0  0  0  0  0  0  0  0  0  0  0  0
    6.9292   -0.0156    1.0999 H   0  0  0  0  0  0  0  0  0  0  0  0
    7.2231    2.0621    0.5754 C   0  0  0  0  0  0  0  0  0  0  0  0
    8.2169    2.0988    1.0469 H   0  0  0  0  0  0  0  0  0  0  0  0
    6.6893    3.2047   -0.0371 C   0  0  0  0  0  0  0  0  0  0  0  0
    7.2593    4.1454   -0.0532 H   0  0  0  0  0  0  0  0  0  0  0  0
    5.4218    3.1300   -0.6372 C   0  0  0  0  0  0  0  0  0  0  0  0
    4.9945    4.0136   -1.1354 H   0  0  0  0  0  0  0  0  0  0  0  0
    4.6889    1.9374   -0.6277 C   0  0  0  0  0  0  0  0  0  0  0  0
    3.7040    1.8836   -1.1073 H   0  0  0  0  0  0  0  0  0  0  0  0
  3  2  1  0  0  0  0
  4  5  1  0  0  0  0
  4  9  1  0  0  0  0
  5  2  1  0  0  0  0
  5  1  1  1  0  0  0
  6  2  1  0  0  0  0
  6  9  1  0  0  0  0
  6  8  1  0  0  0  0
  7  6  1  0  0  0  0
  9 10  1  0  0  0  0
 11  9  1  0  0  0  0
 12  4  1  0  0  0  0
 12 13  1  0  0  0  0
 13 14  1  0  0  0  0
 15 13  2  0  0  0  0
 15 16  1  0  0  0  0
 17 15  1  0  0  0  0
 18 17  1  0  0  0  0
 19 21  1  0  0  0  0
 19 17  2  0  0  0  0
 20 19  1  0  0  0  0
 21 12  2  0  0  0  0
 22 21  1  0  0  0  0
M  END
