5
 OpenBabel05122313063D

 59 62  0  0  0  0  0  0  0  0999 V2000
    3.1931    1.8212   -0.3757 O   0  0  0  0  0  0  0  0  0  0  0  0
    2.0462   -3.0099   -0.3390 O   0  0  0  0  0  0  0  0  0  0  0  0
   -0.1152    0.3357    1.6055 O   0  0  0  0  0  0  0  0  0  0  0  0
   -0.8684    2.5843   -0.3756 S   0  0  0  0  0  0  0  0  0  0  0  0
   -1.5101   -2.1604    0.4587 S   0  0  0  0  0  0  0  0  0  0  0  0
    4.8050    0.1077    2.2369 C   0  0  0  0  0  0  0  0  0  0  0  0
    5.1245    0.9912    2.8117 H   0  0  0  0  0  0  0  0  0  0  0  0
    4.7464   -1.1485    2.8577 C   0  0  0  0  0  0  0  0  0  0  0  0
    5.0250   -1.2516    3.9170 H   0  0  0  0  0  0  0  0  0  0  0  0
    4.3049   -2.2676    2.1364 C   0  0  0  0  0  0  0  0  0  0  0  0
    4.2310   -3.2489    2.6308 H   0  0  0  0  0  0  0  0  0  0  0  0
    3.9413   -2.1416    0.7830 C   0  0  0  0  0  0  0  0  0  0  0  0
    4.0264   -0.8817    0.1636 C   0  0  0  0  0  0  0  0  0  0  0  0
    3.7237   -0.7716   -0.8893 H   0  0  0  0  0  0  0  0  0  0  0  0
    4.4465    0.2507    0.8833 C   0  0  0  0  0  0  0  0  0  0  0  0
    4.4739    1.6008    0.2108 C   0  0  0  0  0  0  0  0  0  0  0  0
    4.7096    2.3979    0.9513 H   0  0  0  0  0  0  0  0  0  0  0  0
    5.2586    1.6373   -0.5816 H   0  0  0  0  0  0  0  0  0  0  0  0
    2.9266    3.0209   -0.9814 C   0  0  0  0  0  0  0  0  0  0  0  0
    3.8726    4.0579   -1.1028 C   0  0  0  0  0  0  0  0  0  0  0  0
    4.8889    3.9389   -0.7047 H   0  0  0  0  0  0  0  0  0  0  0  0
    3.5170    5.2555   -1.7423 C   0  0  0  0  0  0  0  0  0  0  0  0
    4.2638    6.0587   -1.8324 H   0  0  0  0  0  0  0  0  0  0  0  0
    2.2269    5.4266   -2.2639 C   0  0  0  0  0  0  0  0  0  0  0  0
    1.9499    6.3629   -2.7697 H   0  0  0  0  0  0  0  0  0  0  0  0
    1.2917    4.3900   -2.1399 C   0  0  0  0  0  0  0  0  0  0  0  0
    0.2737    4.5075   -2.5428 H   0  0  0  0  0  0  0  0  0  0  0  0
    1.6147    3.1786   -1.5016 C   0  0  0  0  0  0  0  0  0  0  0  0
    0.5891    2.0835   -1.3928 C   0  0  0  0  0  0  0  0  0  0  0  0
    1.0126    1.1448   -0.9931 H   0  0  0  0  0  0  0  0  0  0  0  0
    0.1142    1.8752   -2.3752 H   0  0  0  0  0  0  0  0  0  0  0  0
   -0.1591    2.7219    1.3076 C   0  0  0  0  0  0  0  0  0  0  0  0
    0.4717    3.6328    1.3529 H   0  0  0  0  0  0  0  0  0  0  0  0
   -1.0507    2.8742    1.9514 H   0  0  0  0  0  0  0  0  0  0  0  0
    0.6451    1.5158    1.7702 C   0  0  0  0  0  0  0  0  0  0  0  0
    1.5976    1.4443    1.1986 H   0  0  0  0  0  0  0  0  0  0  0  0
    0.9097    1.6609    2.8464 H   0  0  0  0  0  0  0  0  0  0  0  0
    0.6252   -0.8511    1.8122 C   0  0  0  0  0  0  0  0  0  0  0  0
    1.1485   -0.8223    2.7983 H   0  0  0  0  0  0  0  0  0  0  0  0
    1.4096   -0.9608    1.0296 H   0  0  0  0  0  0  0  0  0  0  0  0
   -0.2989   -2.0583    1.8257 C   0  0  0  0  0  0  0  0  0  0  0  0
   -0.9405   -2.0376    2.7311 H   0  0  0  0  0  0  0  0  0  0  0  0
    0.3057   -2.9866    1.8253 H   0  0  0  0  0  0  0  0  0  0  0  0
   -0.4844   -2.1203   -1.0815 C   0  0  0  0  0  0  0  0  0  0  0  0
   -1.1988   -1.7273   -1.8333 H   0  0  0  0  0  0  0  0  0  0  0  0
    0.3241   -1.3781   -0.9441 H   0  0  0  0  0  0  0  0  0  0  0  0
    0.0341   -3.4706   -1.4830 C   0  0  0  0  0  0  0  0  0  0  0  0
   -0.7549   -4.3427   -2.2525 C   0  0  0  0  0  0  0  0  0  0  0  0
   -1.7597   -4.0087   -2.5555 H   0  0  0  0  0  0  0  0  0  0  0  0
   -0.2870   -5.6078   -2.6375 C   0  0  0  0  0  0  0  0  0  0  0  0
   -0.9219   -6.2715   -3.2421 H   0  0  0  0  0  0  0  0  0  0  0  0
    0.9974   -6.0123   -2.2499 C   0  0  0  0  0  0  0  0  0  0  0  0
    1.3808   -7.0004   -2.5462 H   0  0  0  0  0  0  0  0  0  0  0  0
    1.8112   -5.1639   -1.4816 C   0  0  0  0  0  0  0  0  0  0  0  0
    2.8149   -5.4978   -1.1870 H   0  0  0  0  0  0  0  0  0  0  0  0
    1.3308   -3.8990   -1.0938 C   0  0  0  0  0  0  0  0  0  0  0  0
    3.3977   -3.3156    0.0089 C   0  0  0  0  0  0  0  0  0  0  0  0
    3.9892   -3.4927   -0.9193 H   0  0  0  0  0  0  0  0  0  0  0  0
    3.4430   -4.2434    0.6221 H   0  0  0  0  0  0  0  0  0  0  0  0
  1 16  1  0  0  0  0
  2 57  1  0  0  0  0
  3 35  1  0  0  0  0
  3 38  1  0  0  0  0
  4 32  1  0  0  0  0
  5 41  1  0  0  0  0
  6  7  1  0  0  0  0
  6  8  1  0  0  0  0
  8  9  1  0  0  0  0
 10 11  1  0  0  0  0
 10  8  2  0  0  0  0
 12 10  1  0  0  0  0
 13 12  2  0  0  0  0
 13 15  1  0  0  0  0
 14 13  1  0  0  0  0
 15  6  2  0  0  0  0
 16 15  1  0  0  0  0
 16 17  1  0  0  0  0
 18 16  1  0  0  0  0
 19  1  1  0  0  0  0
 20 19  1  0  0  0  0
 20 21  1  0  0  0  0
 22 20  2  0  0  0  0
 23 22  1  0  0  0  0
 24 26  2  0  0  0  0
 24 22  1  0  0  0  0
 25 24  1  0  0  0  0
 26 28  1  0  0  0  0
 27 26  1  0  0  0  0
 28 29  1  0  0  0  0
 28 19  2  0  0  0  0
 29 30  1  0  0  0  0
 29  4  1  0  0  0  0
 31 29  1  0  0  0  0
 32 33  1  0  0  0  0
 32 35  1  0  0  0  0
 32 34  1  0  0  0  0
 35 37  1  0  0  0  0
 36 35  1  0  0  0  0
 38 41  1  0  0  0  0
 38 39  1  0  0  0  0
 40 38  1  0  0  0  0
 41 42  1  0  0  0  0
 43 41  1  0  0  0  0
 44 46  1  0  0  0  0
 44  5  1  0  0  0  0
 45 44  1  0  0  0  0
 47 56  1  0  0  0  0
 47 44  1  0  0  0  0
 48 47  2  0  0  0  0
 49 48  1  0  0  0  0
 50 48  1  0  0  0  0
 50 52  2  0  0  0  0
 51 50  1  0  0  0  0
 52 54  1  0  0  0  0
 53 52  1  0  0  0  0
 54 55  1  0  0  0  0
 54 56  2  0  0  0  0
 56  2  1  0  0  0  0
 57 59  1  0  0  0  0
 57 12  1  0  0  0  0
 58 57  1  0  0  0  0
M  END
