1
 OpenBabel05122313063D

 22 22  0  0  1  0  0  0  0  0999 V2000
   -2.1175   -1.5770    1.0434 S   0  0  0  0  0  1  0  0  0  0  0  0
   -2.7909    0.9993    1.7853 N   0  0  0  0  0  0  0  0  0  0  0  0
   -3.9589    0.2538    0.0889 N   0  0  0  0  0  0  0  0  0  0  0  0
   -2.9657   -0.0871    0.9692 C   0  0  2  0  0  3  0  0  0  0  0  0
   -3.6453    2.0145    1.3989 C   0  0  0  0  0  0  0  0  0  0  0  0
   -3.6515    2.9869    1.8983 H   0  0  0  0  0  0  0  0  0  0  0  0
   -4.3826    1.5454    0.3421 C   0  0  0  0  0  0  0  0  0  0  0  0
   -5.1609    2.0317   -0.2514 H   0  0  0  0  0  0  0  0  0  0  0  0
   -1.7066    1.1316    2.7428 C   0  0  0  0  0  0  0  0  0  0  0  0
   -2.0253    1.7874    3.5736 H   0  0  0  0  0  0  0  0  0  0  0  0
   -0.8180    1.5568    2.2306 H   0  0  0  0  0  0  0  0  0  0  0  0
   -1.4496    0.1255    3.1224 H   0  0  0  0  0  0  0  0  0  0  0  0
   -4.3698   -0.5750   -1.0599 C   0  0  0  0  0  0  0  0  0  0  0  0
   -3.7420   -1.4847   -0.9537 H   0  0  0  0  0  0  0  0  0  0  0  0
   -4.0087    0.1346   -2.3671 C   0  0  0  0  0  0  0  0  0  0  0  0
   -4.6675    1.0096   -2.5483 H   0  0  0  0  0  0  0  0  0  0  0  0
   -4.1332   -0.5626   -3.2187 H   0  0  0  0  0  0  0  0  0  0  0  0
   -2.9596    0.4918   -2.3338 H   0  0  0  0  0  0  0  0  0  0  0  0
   -5.8438   -0.9643   -0.9480 C   0  0  0  0  0  0  0  0  0  0  0  0
   -6.0478   -1.4926    0.0041 H   0  0  0  0  0  0  0  0  0  0  0  0
   -6.1167   -1.6387   -1.7832 H   0  0  0  0  0  0  0  0  0  0  0  0
   -6.5066   -0.0759   -1.0057 H   0  0  0  0  0  0  0  0  0  0  0  0
  2  9  1  0  0  0  0
  3  7  1  0  0  0  0
  3  4  1  0  0  0  0
  4  1  1  1  0  0  0
  4  2  1  0  0  0  0
  5  2  1  0  0  0  0
  5  6  1  0  0  0  0
  7  5  2  0  0  0  0
  8  7  1  0  0  0  0
  9 12  1  0  0  0  0
  9 10  1  0  0  0  0
 11  9  1  0  0  0  0
 13 14  1  0  0  0  0
 13 19  1  0  0  0  0
 13  3  1  0  0  0  0
 15 18  1  0  0  0  0
 15 13  1  0  0  0  0
 16 15  1  0  0  0  0
 17 15  1  0  0  0  0
 19 20  1  0  0  0  0
 21 19  1  0  0  0  0
 22 19  1  0  0  0  0
M  END
