1
 OpenBabel05122313063D

 36 37  0  0  0  0  0  0  0  0999 V2000
    1.7669   -2.2534   -0.6183 S   0  0  0  0  0  1  0  0  0  0  0  0
    0.0049   -1.9747   -1.0859 C   0  0  0  0  0  0  0  0  0  0  0  0
   -0.0348   -1.1755   -1.8541 H   0  0  0  0  0  0  0  0  0  0  0  0
   -0.3378   -2.9150   -1.5636 H   0  0  0  0  0  0  0  0  0  0  0  0
   -0.8716   -1.6434    0.1239 C   0  0  0  0  0  0  0  0  0  0  0  0
   -0.8460   -2.5046    0.8239 H   0  0  0  0  0  0  0  0  0  0  0  0
   -0.4247   -0.7762    0.6768 H   0  0  0  0  0  0  0  0  0  0  0  0
   -2.2578   -1.3993   -0.2529 N   0  0  0  0  0  0  0  0  0  0  0  0
   -2.4709   -0.0814   -0.8361 C   0  0  0  0  0  0  0  0  0  0  0  0
   -1.7592    0.0770   -1.6709 H   0  0  0  0  0  0  0  0  0  0  0  0
   -2.2766    0.7322   -0.0854 H   0  0  0  0  0  0  0  0  0  0  0  0
   -3.8982    0.0619   -1.3621 C   0  0  0  0  0  0  0  0  0  0  0  0
   -4.0446    1.0933   -1.7406 H   0  0  0  0  0  0  0  0  0  0  0  0
   -4.0362   -0.6422   -2.2235 H   0  0  0  0  0  0  0  0  0  0  0  0
   -3.2056   -1.6246    0.8298 C   0  0  0  0  0  0  0  0  0  0  0  0
   -3.0597   -0.8966    1.6737 H   0  0  0  0  0  0  0  0  0  0  0  0
   -3.0506   -2.6454    1.2377 H   0  0  0  0  0  0  0  0  0  0  0  0
   -4.6393   -1.4990    0.3249 C   0  0  0  0  0  0  0  0  0  0  0  0
   -4.8323   -2.3126   -0.4197 H   0  0  0  0  0  0  0  0  0  0  0  0
   -5.3415   -1.6218    1.1673 H   0  0  0  0  0  0  0  0  0  0  0  0
   -4.8541   -0.1896   -0.2950 N   0  0  0  0  0  0  0  0  0  0  0  0
   -6.1722    0.2686   -0.4564 C   0  0  0  0  0  0  0  0  0  0  0  0
   -6.6898    0.6546   -1.7114 C   0  0  0  0  0  0  0  0  0  0  0  0
   -6.0612    0.5366   -2.6044 H   0  0  0  0  0  0  0  0  0  0  0  0
   -7.9898    1.1689   -1.8531 C   0  0  0  0  0  0  0  0  0  0  0  0
   -8.3538    1.4587   -2.8502 H   0  0  0  0  0  0  0  0  0  0  0  0
   -8.8162    1.2922   -0.7328 C   0  0  0  0  0  0  0  0  0  0  0  0
   -9.8392    1.6853   -0.8281 H   0  0  0  0  0  0  0  0  0  0  0  0
   -8.3317    0.9158    0.5338 C   0  0  0  0  0  0  0  0  0  0  0  0
   -8.9783    1.0335    1.4136 H   0  0  0  0  0  0  0  0  0  0  0  0
   -7.0257    0.4242    0.6859 C   0  0  0  0  0  0  0  0  0  0  0  0
   -6.4778    0.0942    1.8958 O   0  0  0  0  0  0  0  0  0  0  0  0
   -7.2561    0.2727    3.0607 C   0  0  0  0  0  0  0  0  0  0  0  0
   -6.6193   -0.0327    3.9120 H   0  0  0  0  0  0  0  0  0  0  0  0
   -8.1746   -0.3573    3.0522 H   0  0  0  0  0  0  0  0  0  0  0  0
   -7.5587    1.3355    3.1980 H   0  0  0  0  0  0  0  0  0  0  0  0
  2  1  1  0  0  0  0
  2  5  1  0  0  0  0
  3  2  1  0  0  0  0
  4  2  1  0  0  0  0
  5  7  1  0  0  0  0
  5  6  1  0  0  0  0
  8  5  1  0  0  0  0
  8 15  1  0  0  0  0
  9  8  1  0  0  0  0
  9 11  1  0  0  0  0
 10  9  1  0  0  0  0
 12  9  1  0  0  0  0
 12 21  1  0  0  0  0
 13 12  1  0  0  0  0
 14 12  1  0  0  0  0
 15 17  1  0  0  0  0
 15 16  1  0  0  0  0
 18 15  1  0  0  0  0
 18 20  1  0  0  0  0
 19 18  1  0  0  0  0
 21 18  1  0  0  0  0
 22 21  1  0  0  0  0
 22 31  1  0  0  0  0
 23 22  2  0  0  0  0
 24 23  1  0  0  0  0
 25 23  1  0  0  0  0
 25 27  2  0  0  0  0
 26 25  1  0  0  0  0
 27 29  1  0  0  0  0
 28 27  1  0  0  0  0
 29 31  2  0  0  0  0
 29 30  1  0  0  0  0
 31 32  1  0  0  0  0
 32 33  1  0  0  0  0
 33 36  1  0  0  0  0
 33 34  1  0  0  0  0
 35 33  1  0  0  0  0
M  END
