2
 OpenBabel05122313063D

 12 12  0  0  0  0  0  0  0  0999 V2000
   -3.3300   -1.5446   -0.0208 S   0  0  0  0  0  0  0  0  0  0  0  0
   -0.7825    0.0000   -0.7928 S   0  0  0  0  0  0  0  0  0  0  0  0
   -3.3300    1.5446   -0.0208 S   0  0  0  0  0  0  0  0  0  0  0  0
   -1.5394    1.3973    0.1744 C   0  0  0  0  0  0  0  0  0  0  0  0
   -1.2406    1.2829    1.2370 H   0  0  0  0  0  0  0  0  0  0  0  0
   -1.0789    2.3195   -0.2278 H   0  0  0  0  0  0  0  0  0  0  0  0
   -1.5393   -1.3972    0.1744 C   0  0  0  0  0  0  0  0  0  0  0  0
   -1.0788   -2.3194   -0.2278 H   0  0  0  0  0  0  0  0  0  0  0  0
   -1.2406   -1.2829    1.2370 H   0  0  0  0  0  0  0  0  0  0  0  0
   -3.8196   -0.0000    0.8218 C   0  0  0  0  0  0  0  0  0  0  0  0
   -4.9265   -0.0000    0.8506 H   0  0  0  0  0  0  0  0  0  0  0  0
   -3.4422    0.0000    1.8669 H   0  0  0  0  0  0  0  0  0  0  0  0
  1  7  1  0  0  0  0
  1 10  1  0  0  0  0
  2  7  1  0  0  0  0
  2  4  1  0  0  0  0
  3  4  1  0  0  0  0
  3 10  1  0  0  0  0
  4  5  1  0  0  0  0
  6  4  1  0  0  0  0
  7  9  1  0  0  0  0
  8  7  1  0  0  0  0
 10 11  1  0  0  0  0
 10 12  1  0  0  0  0
M  END
