1
 OpenBabel05122313063D

 13 13  0  0  0  0  0  0  0  0999 V2000
   -2.0059   -2.9920    0.1034 S   0  0  0  0  0  1  0  0  0  0  0  0
   -2.3596    2.1578   -1.0555 F   0  0  0  0  0  0  0  0  0  0  0  0
   -2.5103    2.2267    1.1195 F   0  0  0  0  0  0  0  0  0  0  0  0
   -4.2006    2.8570   -0.1117 F   0  0  0  0  0  0  0  0  0  0  0  0
   -4.5084   -2.0964    0.0461 N   0  0  0  0  0  0  0  0  0  0  0  0
   -2.7923   -0.4190    0.0555 N   0  0  0  0  0  0  0  0  0  0  0  0
   -3.2076   -1.7145    0.0660 C   0  0  0  0  0  0  0  0  0  0  0  0
   -3.7304    0.5251   -0.0036 C   0  0  0  0  0  0  0  0  0  0  0  0
   -5.1025    0.2426   -0.0426 C   0  0  0  0  0  0  0  0  0  0  0  0
   -5.8648    1.0299   -0.0929 H   0  0  0  0  0  0  0  0  0  0  0  0
   -5.4243   -1.1285   -0.0058 C   0  0  0  0  0  0  0  0  0  0  0  0
   -6.4815   -1.4523   -0.0200 H   0  0  0  0  0  0  0  0  0  0  0  0
   -3.1985    1.9532   -0.0185 C   0  0  0  0  0  0  0  0  0  0  0  0
  2 13  1  0  0  0  0
  4 13  1  0  0  0  0
  5  7  1  0  0  0  0
  6  7  2  0  0  0  0
  7  1  1  0  0  0  0
  8  6  1  0  0  0  0
  9 11  1  0  0  0  0
  9  8  2  0  0  0  0
 10  9  1  0  0  0  0
 11  5  2  0  0  0  0
 12 11  1  0  0  0  0
 13  8  1  0  0  0  0
 13  3  1  0  0  0  0
M  END
