1
 OpenBabel05122313063D

 39 41  0  0  1  0  0  0  0  0999 V2000
    1.0606   -0.3924   -1.4649 S   0  0  0  0  0  1  0  0  0  0  0  0
    3.4829   -0.8543   -0.4511 N   0  0  0  0  0  0  0  0  0  0  0  0
    1.7481   -1.8107    0.7344 N   0  0  0  0  0  0  0  0  0  0  0  0
    2.4864   -2.2370    1.3006 H   0  0  0  0  0  0  0  0  0  0  0  0
    0.7538   -2.1357    0.8045 H   0  0  0  0  0  0  0  0  0  0  0  0
    3.0139    5.2621    0.8573 O   0  0  0  0  0  0  0  0  0  0  0  0
    4.3707   -1.4961    0.3580 N   0  0  0  0  0  2  0  0  0  0  0  0
    2.9954    2.3981   -1.4908 C   0  0  0  0  0  0  0  0  0  0  0  0
    2.4811    2.0513   -2.3987 H   0  0  0  0  0  0  0  0  0  0  0  0
    8.0626   -1.5052    0.1205 C   0  0  0  0  0  0  0  0  0  0  0  0
    8.1851   -0.8680   -0.7678 H   0  0  0  0  0  0  0  0  0  0  0  0
    3.9125    1.5459   -0.8532 C   0  0  0  0  0  0  0  0  0  0  0  0
    6.7668   -1.7827    0.6168 C   0  0  0  0  0  0  0  0  0  0  0  0
    5.5870   -1.2314   -0.0442 C   0  0  1  0  0  3  0  0  0  0  0  0
    6.6412   -2.6065    1.7636 C   0  0  0  0  0  0  0  0  0  0  0  0
    5.6352   -2.8212    2.1509 H   0  0  0  0  0  0  0  0  0  0  0  0
    5.6028   -0.3537   -1.2827 C   0  0  0  0  0  0  0  0  0  0  0  0
    5.8952   -0.9613   -2.1663 H   0  0  0  0  0  0  0  0  0  0  0  0
    6.3146    0.4910   -1.2144 H   0  0  0  0  0  0  0  0  0  0  0  0
    4.5507    2.0082    0.3196 C   0  0  0  0  0  0  0  0  0  0  0  0
    5.2785    1.3707    0.8455 H   0  0  0  0  0  0  0  0  0  0  0  0
    4.1398    0.1357   -1.3634 C   0  0  1  0  0  0  0  0  0  0  0  0
    3.6955    0.0229   -2.3698 H   0  0  0  0  0  0  0  0  0  0  0  0
    2.1318   -1.0658   -0.3097 C   0  0  2  0  0  3  0  0  0  0  0  0
    9.0591   -2.8519    1.8829 C   0  0  0  0  0  0  0  0  0  0  0  0
    9.9501   -3.2680    2.3767 H   0  0  0  0  0  0  0  0  0  0  0  0
    3.2949    4.0911    0.2267 C   0  0  0  0  0  0  0  0  0  0  0  0
    4.2541    3.2640    0.8518 C   0  0  0  0  0  0  0  0  0  0  0  0
    4.7338    3.6249    1.7732 H   0  0  0  0  0  0  0  0  0  0  0  0
    2.6846    3.6600   -0.9676 C   0  0  0  0  0  0  0  0  0  0  0  0
    1.9397    4.2834   -1.4782 H   0  0  0  0  0  0  0  0  0  0  0  0
    9.1969   -2.0374    0.7488 C   0  0  0  0  0  0  0  0  0  0  0  0
   10.1971   -1.8126    0.3488 H   0  0  0  0  0  0  0  0  0  0  0  0
    7.7751   -3.1332    2.3864 C   0  0  0  0  0  0  0  0  0  0  0  0
    7.6613   -3.7713    3.2759 H   0  0  0  0  0  0  0  0  0  0  0  0
    1.9078    6.0183    0.3932 C   0  0  0  0  0  0  0  0  0  0  0  0
    1.8015    6.8731    1.0867 H   0  0  0  0  0  0  0  0  0  0  0  0
    0.9760    5.4114    0.4090 H   0  0  0  0  0  0  0  0  0  0  0  0
    2.0725    6.4119   -0.6351 H   0  0  0  0  0  0  0  0  0  0  0  0
  2 24  1  0  0  0  0
  2  7  1  0  0  0  0
  3  5  1  0  0  0  0
  3  4  1  0  0  0  0
  8 30  2  0  0  0  0
  8 12  1  0  0  0  0
  9  8  1  0  0  0  0
 10 13  2  0  0  0  0
 10 32  1  0  0  0  0
 11 10  1  0  0  0  0
 12 20  2  0  0  0  0
 13 15  1  0  0  0  0
 14  7  1  0  0  0  0
 14 13  1  6  0  0  0
 15 16  1  0  0  0  0
 15 34  2  0  0  0  0
 17 19  1  0  0  0  0
 17 14  1  0  0  0  0
 18 17  1  0  0  0  0
 20 21  1  0  0  0  0
 20 28  1  0  0  0  0
 22 23  1  6  0  0  0
 22 17  1  0  0  0  0
 22 12  1  0  0  0  0
 22  2  1  0  0  0  0
 24  1  1  6  0  0  0
 24  3  1  0  0  0  0
 25 26  1  0  0  0  0
 25 34  1  0  0  0  0
 27 28  2  0  0  0  0
 27  6  1  0  0  0  0
 28 29  1  0  0  0  0
 30 27  1  0  0  0  0
 31 30  1  0  0  0  0
 32 25  2  0  0  0  0
 33 32  1  0  0  0  0
 34 35  1  0  0  0  0
 36 38  1  0  0  0  0
 36  6  1  0  0  0  0
 36 37  1  0  0  0  0
 39 36  1  0  0  0  0
M  END
