1
 OpenBabel05122313063D

  6  5  0  0  0  0  0  0  0  0999 V2000
   -0.0615   -1.5268    1.4526 S   0  0  0  0  0  3  0  0  0  0  0  0
    0.1215   -2.8327    0.5724 O   0  0  0  0  0  0  0  0  0  0  0  0
    1.5174   -1.3823    2.3843 C   0  0  0  0  0  0  0  0  0  0  0  0
    1.5948   -2.2630    3.0532 H   0  0  0  0  0  0  0  0  0  0  0  0
    1.4888   -0.4496    2.9843 H   0  0  0  0  0  0  0  0  0  0  0  0
    2.3830   -1.3641    1.6935 H   0  0  0  0  0  0  0  0  0  0  0  0
  1  3  1  0  0  0  0
  2  1  2  0  0  0  0
  3  5  1  0  0  0  0
  3  4  1  0  0  0  0
  6  3  1  0  0  0  0
M  END
