1
 OpenBabel05122313063D

 30 31  0  0  1  0  0  0  0  0999 V2000
   -0.2537    2.1283   -2.3385 S   0  0  0  0  0  1  0  0  0  0  0  0
   -1.8869    0.2190   -0.1034 O   0  0  0  0  0  0  0  0  0  0  0  0
    3.9051    3.4390    0.7404 O   0  0  0  0  0  0  0  0  0  0  0  0
   -0.8861    2.2571    0.3301 N   0  0  0  0  0  2  0  0  0  0  0  0
    1.3018    2.7627   -0.1914 N   0  0  0  0  0  0  0  0  0  0  0  0
    0.0550    2.3745   -0.5711 C   0  0  2  0  0  3  0  0  0  0  0  0
   -1.9159    1.3779    0.3846 C   0  0  0  0  0  0  0  0  0  0  0  0
    1.6207    2.7388    1.2426 C   0  0  0  0  0  0  0  0  0  0  0  0
    2.7755    3.6812    1.5638 C   0  0  0  0  0  0  0  0  0  0  0  0
    3.5550    3.6584   -0.6172 C   0  0  0  0  0  0  0  0  0  0  0  0
    2.4643    2.7002   -1.0820 C   0  0  0  0  0  0  0  0  0  0  0  0
   -3.1064    1.8250    1.1797 C   0  0  0  0  0  0  0  0  0  0  0  0
   -4.1652    0.9252    1.4214 C   0  0  0  0  0  0  0  0  0  0  0  0
   -5.2871    1.3359    2.1533 C   0  0  0  0  0  0  0  0  0  0  0  0
   -5.3677    2.6499    2.6440 C   0  0  0  0  0  0  0  0  0  0  0  0
   -4.3175    3.5524    2.4042 C   0  0  0  0  0  0  0  0  0  0  0  0
   -3.1913    3.1407    1.6802 C   0  0  0  0  0  0  0  0  0  0  0  0
    0.7056    3.0149    1.8004 H   0  0  0  0  0  0  0  0  0  0  0  0
    1.8804    1.6928    1.5170 H   0  0  0  0  0  0  0  0  0  0  0  0
    3.0957    3.5286    2.6135 H   0  0  0  0  0  0  0  0  0  0  0  0
    2.4418    4.7431    1.4512 H   0  0  0  0  0  0  0  0  0  0  0  0
    3.2202    4.7162   -0.7608 H   0  0  0  0  0  0  0  0  0  0  0  0
    4.4692    3.4985   -1.2222 H   0  0  0  0  0  0  0  0  0  0  0  0
    2.8438    1.6535   -1.0724 H   0  0  0  0  0  0  0  0  0  0  0  0
    2.1374    2.9348   -2.1116 H   0  0  0  0  0  0  0  0  0  0  0  0
   -4.0961   -0.1029    1.0399 H   0  0  0  0  0  0  0  0  0  0  0  0
   -6.1052    0.6243    2.3424 H   0  0  0  0  0  0  0  0  0  0  0  0
   -6.2511    2.9718    3.2167 H   0  0  0  0  0  0  0  0  0  0  0  0
   -4.3779    4.5826    2.7872 H   0  0  0  0  0  0  0  0  0  0  0  0
   -2.3566    3.8305    1.4880 H   0  0  0  0  0  0  0  0  0  0  0  0
  2  7  2  0  0  0  0
  3  9  1  0  0  0  0
  4  7  1  0  0  0  0
  5  8  1  0  0  0  0
  6  1  1  6  0  0  0
  6  5  1  0  0  0  0
  6  4  1  0  0  0  0
  7 12  1  0  0  0  0
  8 19  1  0  0  0  0
  8  9  1  0  0  0  0
  8 18  1  0  0  0  0
  9 20  1  0  0  0  0
 10  3  1  0  0  0  0
 11 24  1  0  0  0  0
 11 10  1  0  0  0  0
 11  5  1  0  0  0  0
 12 13  2  0  0  0  0
 12 17  1  0  0  0  0
 13 14  1  0  0  0  0
 14 27  1  0  0  0  0
 14 15  2  0  0  0  0
 15 28  1  0  0  0  0
 16 15  1  0  0  0  0
 16 29  1  0  0  0  0
 17 16  2  0  0  0  0
 21  9  1  0  0  0  0
 22 10  1  0  0  0  0
 23 10  1  0  0  0  0
 25 11  1  0  0  0  0
 26 13  1  0  0  0  0
 30 17  1  0  0  0  0
M  END
