1
 OpenBabel05122313063D

 12 12  0  0  0  0  0  0  0  0999 V2000
   -1.2676   -1.1802   -2.6636 S   0  0  0  0  0  0  0  0  0  0  0  0
   -3.0255   -3.0521   -0.7712 Cl  0  0  0  0  0  0  0  0  0  0  0  0
   -4.8203   -1.8688    1.4925 Cl  0  0  0  0  0  0  0  0  0  0  0  0
   -4.8958    1.2297    1.9879 Cl  0  0  0  0  0  0  0  0  0  0  0  0
   -3.2717    3.1546    0.1219 Cl  0  0  0  0  0  0  0  0  0  0  0  0
   -1.5298    2.0085   -2.1875 Cl  0  0  0  0  0  0  0  0  0  0  0  0
   -2.3403   -0.4914   -1.4181 C   0  0  0  0  0  0  0  0  0  0  0  0
   -3.1143   -1.3358   -0.5759 C   0  0  0  0  0  0  0  0  0  0  0  0
   -3.9166   -0.8122    0.4629 C   0  0  0  0  0  0  0  0  0  0  0  0
   -3.9664    0.5821    0.6804 C   0  0  0  0  0  0  0  0  0  0  0  0
   -3.2326    1.4437   -0.1626 C   0  0  0  0  0  0  0  0  0  0  0  0
   -2.4493    0.9113   -1.2084 C   0  0  0  0  0  0  0  0  0  0  0  0
  1  7  1  0  0  0  0
  2  8  1  0  0  0  0
  6 12  1  0  0  0  0
  7 12  2  0  0  0  0
  7  8  1  0  0  0  0
  8  9  2  0  0  0  0
  9 10  1  0  0  0  0
  9  3  1  0  0  0  0
 10  4  1  0  0  0  0
 11  5  1  0  0  0  0
 11 10  2  0  0  0  0
 12 11  1  0  0  0  0
M  END
