1
 OpenBabel05122313063D

 12 12  0  0  0  0  0  0  0  0999 V2000
   -1.4741    0.1626    0.7883 S   0  0  0  0  0  0  0  0  0  0  0  0
   -2.4855   -1.3728   -0.2740 S   0  0  0  0  0  0  0  0  0  0  0  0
   -2.2718    1.5850   -0.0699 C   0  0  0  0  0  0  0  0  0  0  0  0
   -3.7726    1.5500   -0.0073 C   0  0  0  0  0  0  0  0  0  0  0  0
   -4.5725    0.4760    0.1584 C   0  0  0  0  0  0  0  0  0  0  0  0
   -4.1747   -0.9661    0.3033 C   0  0  0  0  0  0  0  0  0  0  0  0
   -1.8747    2.4796    0.4557 H   0  0  0  0  0  0  0  0  0  0  0  0
   -1.8876    1.6175   -1.1116 H   0  0  0  0  0  0  0  0  0  0  0  0
   -4.2571    2.5364   -0.1077 H   0  0  0  0  0  0  0  0  0  0  0  0
   -5.6604    0.6563    0.2115 H   0  0  0  0  0  0  0  0  0  0  0  0
   -4.8305   -1.6053   -0.3279 H   0  0  0  0  0  0  0  0  0  0  0  0
   -4.3091   -1.3172    1.3504 H   0  0  0  0  0  0  0  0  0  0  0  0
  2  6  1  0  0  0  0
  2  1  1  0  0  0  0
  3  4  1  0  0  0  0
  3  7  1  0  0  0  0
  3  1  1  0  0  0  0
  4  5  2  0  0  0  0
  5 10  1  0  0  0  0
  5  6  1  0  0  0  0
  6 12  1  0  0  0  0
  8  3  1  0  0  0  0
  9  4  1  0  0  0  0
 11  6  1  0  0  0  0
M  END
