1
 OpenBabel05122313063D

  8  7  0  0  0  0  0  0  0  0999 V2000
    3.3375   -1.6759   -0.3759 S   0  0  0  0  0  1  0  0  0  0  0  0
    5.2623    1.2005   -0.4640 O   0  0  0  0  0  0  0  0  0  0  0  0
    3.2838    1.6891    0.5004 O   0  0  0  0  0  0  0  0  0  0  0  0
    4.2238   -0.5371    0.7887 C   0  0  0  0  0  0  0  0  0  0  0  0
    4.1812    0.8862    0.2895 C   0  0  0  0  0  0  0  0  0  0  0  0
    5.0973    2.1151   -0.7819 H   0  0  0  0  0  0  0  0  0  0  0  0
    3.7737   -0.5750    1.7982 H   0  0  0  0  0  0  0  0  0  0  0  0
    5.2701   -0.8956    0.8317 H   0  0  0  0  0  0  0  0  0  0  0  0
  1  4  1  0  0  0  0
  2  5  1  0  0  0  0
  4  8  1  0  0  0  0
  4  7  1  0  0  0  0
  5  3  2  0  0  0  0
  5  4  1  0  0  0  0
  6  2  1  0  0  0  0
M  END
