1
 OpenBabel05122313063D

 40 42  0  0  1  0  0  0  0  0999 V2000
   -1.5946   -1.8142   -0.0934 S   0  0  0  0  0  1  0  0  0  0  0  0
    0.0689   -1.4396   -0.0619 C   0  0  2  0  0  3  0  0  0  0  0  0
    1.7754    0.1729   -0.0889 N   0  0  0  0  0  0  0  0  0  0  0  0
    1.0612   -2.3510   -0.0025 N   0  0  0  0  0  0  0  0  0  0  0  0
    1.9769   -1.9085    0.1512 H   0  0  0  0  0  0  0  0  0  0  0  0
    0.4897   -0.1152   -0.0718 N   0  0  0  0  0  0  0  0  0  0  0  0
   -0.1761    0.7318    0.0549 H   0  0  0  0  0  0  0  0  0  0  0  0
    1.0587   -3.7649    0.0070 C   0  0  0  0  0  0  0  0  0  0  0  0
    3.6459    1.5509   -0.0044 C   0  0  1  0  0  3  0  0  0  0  0  0
    2.1849    1.4409   -0.0477 C   0  0  0  0  0  0  0  0  0  0  0  0
    1.3023    2.6299   -0.0683 C   0  0  0  0  0  0  0  0  0  0  0  0
    4.3973    2.5787    0.6078 C   0  0  0  0  0  0  0  0  0  0  0  0
    3.8705    3.4019    1.1060 H   0  0  0  0  0  0  0  0  0  0  0  0
    5.7085    0.4129   -0.5405 C   0  0  0  0  0  0  0  0  0  0  0  0
    6.1386   -0.4817   -1.0130 H   0  0  0  0  0  0  0  0  0  0  0  0
    0.0315   -4.5468   -0.5591 C   0  0  0  0  0  0  0  0  0  0  0  0
   -0.8345   -4.0735   -1.0372 H   0  0  0  0  0  0  0  0  0  0  0  0
    2.2692   -5.7875    0.6223 C   0  0  0  0  0  0  0  0  0  0  0  0
    3.1434   -6.2668    1.0869 H   0  0  0  0  0  0  0  0  0  0  0  0
    1.2416   -6.5706    0.0704 C   0  0  0  0  0  0  0  0  0  0  0  0
    1.3070   -7.6679    0.0989 H   0  0  0  0  0  0  0  0  0  0  0  0
    2.1809   -4.3924    0.5918 C   0  0  0  0  0  0  0  0  0  0  0  0
    2.9794   -3.7781    1.0386 H   0  0  0  0  0  0  0  0  0  0  0  0
    0.1331   -5.9442   -0.5191 C   0  0  0  0  0  0  0  0  0  0  0  0
   -0.6711   -6.5496   -0.9623 H   0  0  0  0  0  0  0  0  0  0  0  0
    5.7921    2.5115    0.6275 C   0  0  0  0  0  0  0  0  0  0  0  0
    6.3665    3.3076    1.1243 H   0  0  0  0  0  0  0  0  0  0  0  0
    6.4676    1.4202    0.0374 C   0  0  0  0  0  0  0  0  0  0  0  0
    7.5634    1.3494    0.0385 H   0  0  0  0  0  0  0  0  0  0  0  0
   -0.0108    2.3934    0.1871 N   0  0  0  0  0  0  0  0  0  0  0  0
    4.3572    0.5115   -0.5466 N   0  0  0  0  0  0  0  0  0  0  0  0
    0.8374    4.9817   -0.4239 C   0  0  0  0  0  0  0  0  0  0  0  0
    1.1686    5.9954   -0.6946 H   0  0  0  0  0  0  0  0  0  0  0  0
    1.7553    3.9235   -0.4157 C   0  0  0  0  0  0  0  0  0  0  0  0
    2.7965    4.1023   -0.7152 H   0  0  0  0  0  0  0  0  0  0  0  0
   -0.8903    3.4063    0.1730 C   0  0  0  0  0  0  0  0  0  0  0  0
   -1.9484    3.1394    0.3587 H   0  0  0  0  0  0  0  0  0  0  0  0
   -0.5025    4.7280   -0.1042 C   0  0  0  0  0  0  0  0  0  0  0  0
   -1.2538    5.5304   -0.0991 H   0  0  0  0  0  0  0  0  0  0  0  0
    3.7752   -0.2431   -0.9405 H   0  0  0  0  0  0  0  0  0  0  0  0
  2  1  1  1  0  0  0
  2  4  1  0  0  0  0
  3  6  1  0  0  0  0
  3 10  2  0  0  0  0
  4  8  1  0  0  0  0
  4  5  1  0  0  0  0
  6  2  1  0  0  0  0
  6  7  1  0  0  0  0
  8 22  1  0  0  0  0
  9 10  1  1  0  0  0
  9 12  1  0  0  0  0
 11 10  1  0  0  0  0
 11 30  1  0  0  0  0
 12 26  2  0  0  0  0
 12 13  1  0  0  0  0
 14 28  2  0  0  0  0
 15 14  1  0  0  0  0
 16 24  1  0  0  0  0
 16  8  2  0  0  0  0
 17 16  1  0  0  0  0
 18 19  1  0  0  0  0
 20 21  1  0  0  0  0
 20 18  1  0  0  0  0
 22 18  2  0  0  0  0
 22 23  1  0  0  0  0
 24 20  2  0  0  0  0
 25 24  1  0  0  0  0
 26 27  1  0  0  0  0
 28 29  1  0  0  0  0
 28 26  1  0  0  0  0
 31 14  1  0  0  0  0
 31  9  1  0  0  0  0
 32 34  1  0  0  0  0
 32 38  2  0  0  0  0
 33 32  1  0  0  0  0
 34 11  2  0  0  0  0
 35 34  1  0  0  0  0
 36 30  2  0  0  0  0
 36 37  1  0  0  0  0
 38 39  1  0  0  0  0
 38 36  1  0  0  0  0
 40 31  1  0  0  0  0
M  END
