1
 OpenBabel05122313063D

 19 19  0  0  0  0  0  0  0  0999 V2000
   -0.7238   -1.7965    0.2535 S   0  0  0  0  0  1  0  0  0  0  0  0
   -1.9404   -1.4177   -1.1189 C   0  0  0  0  0  0  0  0  0  0  0  0
   -3.1008   -0.6006   -0.6297 C   0  0  0  0  0  0  0  0  0  0  0  0
   -4.3600   -1.1766   -0.3906 C   0  0  0  0  0  0  0  0  0  0  0  0
   -5.4430   -0.4164    0.0839 C   0  0  0  0  0  0  0  0  0  0  0  0
   -5.2707    0.9590    0.3325 C   0  0  0  0  0  0  0  0  0  0  0  0
   -4.0085    1.5510    0.1019 C   0  0  0  0  0  0  0  0  0  0  0  0
   -2.9448    0.7809   -0.3663 C   0  0  0  0  0  0  0  0  0  0  0  0
   -7.5250    1.2452    1.0491 C   0  0  0  0  0  0  0  0  0  0  0  0
   -6.2487    1.7929    0.7921 O   0  0  0  0  0  0  0  0  0  0  0  0
   -1.3731   -0.8889   -1.9077 H   0  0  0  0  0  0  0  0  0  0  0  0
   -2.2705   -2.4027   -1.5044 H   0  0  0  0  0  0  0  0  0  0  0  0
   -4.5065   -2.2519   -0.5815 H   0  0  0  0  0  0  0  0  0  0  0  0
   -6.4108   -0.9068    0.2548 H   0  0  0  0  0  0  0  0  0  0  0  0
   -3.8954    2.6260    0.3058 H   0  0  0  0  0  0  0  0  0  0  0  0
   -1.9558    1.2347   -0.5347 H   0  0  0  0  0  0  0  0  0  0  0  0
   -8.1579    2.0764    1.4125 H   0  0  0  0  0  0  0  0  0  0  0  0
   -7.4895    0.4514    1.8299 H   0  0  0  0  0  0  0  0  0  0  0  0
   -7.9878    0.8149    0.1316 H   0  0  0  0  0  0  0  0  0  0  0  0
  2  3  1  0  0  0  0
  2  1  1  0  0  0  0
  3  4  2  0  0  0  0
  3  8  1  0  0  0  0
  4  5  1  0  0  0  0
  5 14  1  0  0  0  0
  5  6  2  0  0  0  0
  6 10  1  0  0  0  0
  7 15  1  0  0  0  0
  7  6  1  0  0  0  0
  8  7  2  0  0  0  0
  9 17  1  0  0  0  0
  9 18  1  0  0  0  0
 10  9  1  0  0  0  0
 11  2  1  0  0  0  0
 12  2  1  0  0  0  0
 13  4  1  0  0  0  0
 16  8  1  0  0  0  0
 19  9  1  0  0  0  0
M  END
