1
 OpenBabel05122313063D

 24 23  0  0  1  0  0  0  0  0999 V2000
    0.9687   -0.5515   -1.3027 S   0  0  0  0  0  1  0  0  0  0  0  0
    2.3126    0.1483   -0.4997 C   0  0  2  0  0  3  0  0  0  0  0  0
    2.3520    1.4778   -0.2612 N   0  0  0  0  0  0  0  0  0  0  0  0
    1.4558    2.3970   -0.9546 C   0  0  0  0  0  0  0  0  0  0  0  0
    3.1660    2.1521    0.7520 C   0  0  0  0  0  0  0  0  0  0  0  0
    3.4708   -0.7834   -0.0693 C   0  0  0  0  0  0  0  0  0  0  0  0
    3.2598   -1.1710    1.4181 C   0  0  0  0  0  0  0  0  0  0  0  0
    3.4313   -2.0968   -0.8855 C   0  0  0  0  0  0  0  0  0  0  0  0
    4.8647   -0.1577   -0.3181 C   0  0  0  0  0  0  0  0  0  0  0  0
    1.1380    1.9527   -1.9149 H   0  0  0  0  0  0  0  0  0  0  0  0
    1.9986    3.3484   -1.1224 H   0  0  0  0  0  0  0  0  0  0  0  0
    0.5444    2.6046   -0.3583 H   0  0  0  0  0  0  0  0  0  0  0  0
    3.6298    1.4353    1.4427 H   0  0  0  0  0  0  0  0  0  0  0  0
    2.4995    2.8068    1.3482 H   0  0  0  0  0  0  0  0  0  0  0  0
    3.9516    2.7776    0.2796 H   0  0  0  0  0  0  0  0  0  0  0  0
    3.2811   -0.3088    2.1123 H   0  0  0  0  0  0  0  0  0  0  0  0
    4.0569   -1.8758    1.7296 H   0  0  0  0  0  0  0  0  0  0  0  0
    2.2828   -1.6770    1.5456 H   0  0  0  0  0  0  0  0  0  0  0  0
    3.5306   -1.9050   -1.9718 H   0  0  0  0  0  0  0  0  0  0  0  0
    2.4920   -2.6550   -0.7239 H   0  0  0  0  0  0  0  0  0  0  0  0
    4.2804   -2.7328   -0.5647 H   0  0  0  0  0  0  0  0  0  0  0  0
    5.1154    0.6882    0.3446 H   0  0  0  0  0  0  0  0  0  0  0  0
    4.9563    0.1882   -1.3674 H   0  0  0  0  0  0  0  0  0  0  0  0
    5.6405   -0.9313   -0.1544 H   0  0  0  0  0  0  0  0  0  0  0  0
  2  1  1  6  0  0  0
  2  3  1  0  0  0  0
  2  6  1  0  0  0  0
  3  5  1  0  0  0  0
  4 12  1  0  0  0  0
  4  3  1  0  0  0  0
  5 14  1  0  0  0  0
  5 13  1  0  0  0  0
  6  7  1  0  0  0  0
  7 18  1  0  0  0  0
  7 17  1  0  0  0  0
  7 16  1  0  0  0  0
  8 20  1  0  0  0  0
  8 21  1  0  0  0  0
  8  6  1  0  0  0  0
  9 24  1  0  0  0  0
  9  6  1  0  0  0  0
  9 22  1  0  0  0  0
 10  4  1  0  0  0  0
 11  4  1  0  0  0  0
 15  5  1  0  0  0  0
 19  8  1  0  0  0  0
 23  9  1  0  0  0  0
M  END
