1
 OpenBabel05122313063D

 23 23  0  0  0  0  0  0  0  0999 V2000
    0.0374   -2.1155   -1.0155 S   0  0  0  0  0  0  0  0  0  0  0  0
   -1.6945   -2.6876   -0.7618 C   0  0  0  0  0  0  0  0  0  0  0  0
   -2.2761   -1.8805   -1.2505 H   0  0  0  0  0  0  0  0  0  0  0  0
   -1.8233   -3.6204   -1.3472 H   0  0  0  0  0  0  0  0  0  0  0  0
   -2.0825   -2.8559    0.7021 C   0  0  0  0  0  0  0  0  0  0  0  0
   -1.6193   -2.0682    1.3320 H   0  0  0  0  0  0  0  0  0  0  0  0
   -1.7788   -3.8405    1.1097 H   0  0  0  0  0  0  0  0  0  0  0  0
   -3.9058   -2.7837    0.9254 S   0  0  0  0  0  0  0  0  0  0  0  0
   -4.1125   -1.0507    0.5943 C   0  0  0  0  0  0  0  0  0  0  0  0
   -3.5934   -0.0827    1.4782 C   0  0  0  0  0  0  0  0  0  0  0  0
   -2.9246   -0.4551    2.5730 F   0  0  0  0  0  0  0  0  0  0  0  0
   -3.7294    1.2843    1.2112 C   0  0  0  0  0  0  0  0  0  0  0  0
   -3.2017    2.1983    2.0373 F   0  0  0  0  0  0  0  0  0  0  0  0
   -4.3980    1.7031    0.0503 C   0  0  0  0  0  0  0  0  0  0  0  0
   -4.4891    3.0087   -0.2197 F   0  0  0  0  0  0  0  0  0  0  0  0
   -4.9265    0.7603   -0.8436 C   0  0  0  0  0  0  0  0  0  0  0  0
   -5.5349    1.1668   -1.9588 F   0  0  0  0  0  0  0  0  0  0  0  0
   -4.7783   -0.6085   -0.5658 C   0  0  0  0  0  0  0  0  0  0  0  0
   -5.2462   -1.4871   -1.4542 F   0  0  0  0  0  0  0  0  0  0  0  0
    0.9265   -3.3283    0.0162 C   0  0  0  0  0  0  0  0  0  0  0  0
    0.5837   -4.3333   -0.2974 H   0  0  0  0  0  0  0  0  0  0  0  0
    0.7553   -3.1430    1.0913 H   0  0  0  0  0  0  0  0  0  0  0  0
    2.0006   -3.2236   -0.2076 H   0  0  0  0  0  0  0  0  0  0  0  0
  1  2  1  0  0  0  0
  1 20  1  0  0  0  0
  2  5  1  0  0  0  0
  3  2  1  0  0  0  0
  4  2  1  0  0  0  0
  5  8  1  0  0  0  0
  5  7  1  0  0  0  0
  5  6  1  0  0  0  0
  9  8  1  0  0  0  0
  9 10  1  0  0  0  0
 10 11  1  0  0  0  0
 12 10  2  0  0  0  0
 12 13  1  0  0  0  0
 14 12  1  0  0  0  0
 15 14  1  0  0  0  0
 16 18  1  0  0  0  0
 16 14  2  0  0  0  0
 17 16  1  0  0  0  0
 18  9  2  0  0  0  0
 19 18  1  0  0  0  0
 20 22  1  0  0  0  0
 21 20  1  0  0  0  0
 23 20  1  0  0  0  0
M  END
