1
 OpenBabel05122313063D

 36 36  0  0  1  0  0  0  0  0999 V2000
   -1.9251   -3.9507    0.2025 S   0  0  0  0  0  1  0  0  0  0  0  0
   -4.5263   -3.2378    0.2519 N   0  0  0  0  0  0  0  0  0  0  0  0
   -5.1962   -2.4606    0.1888 H   0  0  0  0  0  0  0  0  0  0  0  0
   -3.0133   -1.5058    0.1277 N   0  0  0  0  0  0  0  0  0  0  0  0
   -2.0133   -1.1794    0.0949 H   0  0  0  0  0  0  0  0  0  0  0  0
   -4.0444   -0.6370    0.1081 N   0  0  0  0  0  0  0  0  0  0  0  0
   -3.2380   -2.8492    0.1911 C   0  0  1  0  0  3  0  0  0  0  0  0
   -4.9801   -4.6185    0.2421 C   0  0  0  0  0  0  0  0  0  0  0  0
   -5.9522   -4.6515    0.7760 H   0  0  0  0  0  0  0  0  0  0  0  0
   -4.2547   -5.2113    0.8369 H   0  0  0  0  0  0  0  0  0  0  0  0
   -5.1078   -5.2071   -1.1644 C   0  0  0  0  0  0  0  0  0  0  0  0
   -5.8258   -4.6297   -1.7814 H   0  0  0  0  0  0  0  0  0  0  0  0
   -5.4619   -6.2564   -1.1137 H   0  0  0  0  0  0  0  0  0  0  0  0
   -4.1222   -5.1986   -1.6705 H   0  0  0  0  0  0  0  0  0  0  0  0
   -3.7465    0.6287    0.0564 C   0  0  0  0  0  0  0  0  0  0  0  0
   -2.6829    0.9503    0.0343 H   0  0  0  0  0  0  0  0  0  0  0  0
   -4.7692    1.6682    0.0253 C   0  0  0  0  0  0  0  0  0  0  0  0
   -6.1538    1.3780    0.0467 C   0  0  0  0  0  0  0  0  0  0  0  0
   -6.4751    0.3272    0.0881 H   0  0  0  0  0  0  0  0  0  0  0  0
   -7.0952    2.4093    0.0158 C   0  0  0  0  0  0  0  0  0  0  0  0
   -8.1697    2.1648    0.0331 H   0  0  0  0  0  0  0  0  0  0  0  0
   -6.7042    3.7651   -0.0376 C   0  0  0  0  0  0  0  0  0  0  0  0
   -5.3229    4.0507   -0.0588 C   0  0  0  0  0  0  0  0  0  0  0  0
   -4.9810    5.0968   -0.1002 H   0  0  0  0  0  0  0  0  0  0  0  0
   -4.3726    3.0251   -0.0281 C   0  0  0  0  0  0  0  0  0  0  0  0
   -3.2987    3.2696   -0.0455 H   0  0  0  0  0  0  0  0  0  0  0  0
   -7.7419    4.8765   -0.0711 C   0  0  0  0  0  0  0  0  0  0  0  0
   -8.7389    4.3848   -0.0447 H   0  0  0  0  0  0  0  0  0  0  0  0
   -7.6392    5.7862    1.1654 C   0  0  0  0  0  0  0  0  0  0  0  0
   -6.6659    6.3187    1.1923 H   0  0  0  0  0  0  0  0  0  0  0  0
   -7.7286    5.2036    2.1039 H   0  0  0  0  0  0  0  0  0  0  0  0
   -8.4396    6.5543    1.1571 H   0  0  0  0  0  0  0  0  0  0  0  0
   -7.6594    5.6907   -1.3738 C   0  0  0  0  0  0  0  0  0  0  0  0
   -8.4601    6.4577   -1.4106 H   0  0  0  0  0  0  0  0  0  0  0  0
   -7.7631    5.0394   -2.2644 H   0  0  0  0  0  0  0  0  0  0  0  0
   -6.6869    6.2193   -1.4559 H   0  0  0  0  0  0  0  0  0  0  0  0
  3  2  1  0  0  0  0
  4  7  1  0  0  0  0
  5  4  1  0  0  0  0
  6  4  1  0  0  0  0
  7  1  1  1  0  0  0
  7  2  1  0  0  0  0
  8  2  1  0  0  0  0
  8  9  1  0  0  0  0
  8 10  1  0  0  0  0
 11 13  1  0  0  0  0
 11  8  1  0  0  0  0
 12 11  1  0  0  0  0
 14 11  1  0  0  0  0
 15  6  2  0  0  0  0
 16 15  1  0  0  0  0
 17 18  1  0  0  0  0
 17 15  1  0  0  0  0
 18 19  1  0  0  0  0
 20 21  1  0  0  0  0
 20 18  2  0  0  0  0
 22 20  1  0  0  0  0
 23 22  2  0  0  0  0
 23 25  1  0  0  0  0
 24 23  1  0  0  0  0
 25 17  2  0  0  0  0
 26 25  1  0  0  0  0
 27 28  1  0  0  0  0
 27 22  1  0  0  0  0
 27 29  1  0  0  0  0
 29 30  1  0  0  0  0
 29 31  1  0  0  0  0
 32 29  1  0  0  0  0
 33 27  1  0  0  0  0
 34 33  1  0  0  0  0
 35 33  1  0  0  0  0
 36 33  1  0  0  0  0
M  END
