1
 OpenBabel05122313063D

 19 19  0  0  0  0  0  0  0  0999 V2000
    1.6050   -2.7495    0.3977 S   0  0  0  0  0  1  0  0  0  0  0  0
    3.4153   -0.4877   -0.2721 N   0  0  0  0  0  0  0  0  0  0  0  0
    2.8749   -1.2084   -0.7840 H   0  0  0  0  0  0  0  0  0  0  0  0
    4.7830    1.3744   -0.5509 O   0  0  0  0  0  0  0  0  0  0  0  0
    3.6047   -0.8798   -2.9276 F   0  0  0  0  0  0  0  0  0  0  0  0
    2.5327    1.0147   -2.7461 F   0  0  0  0  0  0  0  0  0  0  0  0
    4.6629    1.0127   -3.2239 F   0  0  0  0  0  0  0  0  0  0  0  0
    2.4609   -1.6963    1.5761 C   0  0  0  0  0  0  0  0  0  0  0  0
    2.3334   -1.9025    2.9608 C   0  0  0  0  0  0  0  0  0  0  0  0
    1.6687   -2.7045    3.3137 H   0  0  0  0  0  0  0  0  0  0  0  0
    3.0369   -1.1065    3.8773 C   0  0  0  0  0  0  0  0  0  0  0  0
    2.9184   -1.2823    4.9570 H   0  0  0  0  0  0  0  0  0  0  0  0
    3.8916   -0.0962    3.4114 C   0  0  0  0  0  0  0  0  0  0  0  0
    4.4481    0.5312    4.1238 H   0  0  0  0  0  0  0  0  0  0  0  0
    4.0434    0.1285    2.0375 C   0  0  0  0  0  0  0  0  0  0  0  0
    4.7022    0.9156    1.6516 H   0  0  0  0  0  0  0  0  0  0  0  0
    3.3302   -0.6638    1.1154 C   0  0  0  0  0  0  0  0  0  0  0  0
    4.0605    0.4825   -0.9768 C   0  0  0  0  0  0  0  0  0  0  0  0
    3.7220    0.4108   -2.4944 C   0  0  0  0  0  0  0  0  0  0  0  0
  1  8  1  0  0  0  0
  2 17  1  0  0  0  0
  3  2  1  0  0  0  0
  5 19  1  0  0  0  0
  6 19  1  0  0  0  0
  7 19  1  0  0  0  0
  8  9  1  0  0  0  0
  9 10  1  0  0  0  0
  9 11  2  0  0  0  0
 11 12  1  0  0  0  0
 13 11  1  0  0  0  0
 13 14  1  0  0  0  0
 15 13  2  0  0  0  0
 16 15  1  0  0  0  0
 17  8  2  0  0  0  0
 17 15  1  0  0  0  0
 18  4  2  0  0  0  0
 18  2  1  0  0  0  0
 19 18  1  0  0  0  0
M  END
