1
 OpenBabel05122313063D

 28 29  0  0  1  0  0  0  0  0999 V2000
   -1.9633   -0.4506    0.0530 S   0  0  0  0  0  1  0  0  0  0  0  0
   -2.9150    2.0945    0.4096 N   0  0  0  0  0  0  0  0  0  0  0  0
   -1.9508    2.4830    0.2818 H   0  0  0  0  0  0  0  0  0  0  0  0
   -4.4781    0.5640    0.0431 N   0  0  0  0  0  0  0  0  0  0  0  0
   -5.1049   -0.7181   -0.0392 C   0  0  0  0  0  0  0  0  0  0  0  0
   -3.1309    0.7821    0.1743 C   0  0  2  0  0  3  0  0  0  0  0  0
   -5.5532   -1.1632   -1.3046 C   0  0  0  0  0  0  0  0  0  0  0  0
   -5.2759   -1.4899    1.1344 C   0  0  0  0  0  0  0  0  0  0  0  0
   -6.2157   -2.4023   -1.3747 C   0  0  0  0  0  0  0  0  0  0  0  0
   -6.5690   -2.7672   -2.3516 H   0  0  0  0  0  0  0  0  0  0  0  0
   -6.4136   -3.1740   -0.2215 C   0  0  0  0  0  0  0  0  0  0  0  0
   -6.9333   -4.1417   -0.2921 H   0  0  0  0  0  0  0  0  0  0  0  0
   -5.2269    1.7999    0.3010 C   0  0  0  0  0  0  0  0  0  0  0  0
   -5.6773    1.7758    1.3205 H   0  0  0  0  0  0  0  0  0  0  0  0
   -6.0499    1.9318   -0.4295 H   0  0  0  0  0  0  0  0  0  0  0  0
   -4.1255    2.8730    0.1785 C   0  0  0  0  0  0  0  0  0  0  0  0
   -4.1128    3.3321   -0.8371 H   0  0  0  0  0  0  0  0  0  0  0  0
   -4.2402    3.6884    0.9198 H   0  0  0  0  0  0  0  0  0  0  0  0
   -5.9413   -2.7247    1.0189 C   0  0  0  0  0  0  0  0  0  0  0  0
   -6.0833   -3.3413    1.9200 H   0  0  0  0  0  0  0  0  0  0  0  0
   -5.2756   -0.3434   -2.5374 C   0  0  0  0  0  0  0  0  0  0  0  0
   -5.7411    0.6631   -2.4852 H   0  0  0  0  0  0  0  0  0  0  0  0
   -5.6576   -0.8459   -3.4461 H   0  0  0  0  0  0  0  0  0  0  0  0
   -4.1837   -0.1852   -2.6576 H   0  0  0  0  0  0  0  0  0  0  0  0
   -4.7132   -1.0211    2.4499 C   0  0  0  0  0  0  0  0  0  0  0  0
   -3.6026   -1.0285    2.4105 H   0  0  0  0  0  0  0  0  0  0  0  0
   -5.0380   -1.6749    3.2812 H   0  0  0  0  0  0  0  0  0  0  0  0
   -5.0163    0.0183    2.6904 H   0  0  0  0  0  0  0  0  0  0  0  0
  3  2  1  0  0  0  0
  4  6  1  0  0  0  0
  4 13  1  0  0  0  0
  5  4  1  0  0  0  0
  5  8  1  0  0  0  0
  6  1  1  1  0  0  0
  6  2  1  0  0  0  0
  7  5  2  0  0  0  0
  8 25  1  0  0  0  0
  9  7  1  0  0  0  0
  9 11  2  0  0  0  0
 10  9  1  0  0  0  0
 11 19  1  0  0  0  0
 12 11  1  0  0  0  0
 13 14  1  0  0  0  0
 15 13  1  0  0  0  0
 16 13  1  0  0  0  0
 16  2  1  0  0  0  0
 16 18  1  0  0  0  0
 17 16  1  0  0  0  0
 19  8  2  0  0  0  0
 19 20  1  0  0  0  0
 21 22  1  0  0  0  0
 21  7  1  0  0  0  0
 23 21  1  0  0  0  0
 24 21  1  0  0  0  0
 25 28  1  0  0  0  0
 25 27  1  0  0  0  0
 26 25  1  0  0  0  0
M  END
