1
 OpenBabel05122313063D

 43 44  0  0  1  0  0  0  0  0999 V2000
   -1.6144    0.0058   -1.5099 S   0  0  0  0  0  1  0  0  0  0  0  0
   -0.4257    1.3242    0.5779 N   0  0  0  0  0  2  0  0  0  0  0  0
   -2.3209    2.2926   -0.3061 N   0  0  0  0  0  0  0  0  0  0  0  0
    1.4176    0.3883    1.6176 N   0  0  0  0  0  0  0  0  0  0  0  0
    1.7095   -0.2730    2.3400 H   0  0  0  0  0  0  0  0  0  0  0  0
   -1.4391    1.2564   -0.2967 C   0  0  1  0  0  3  0  0  0  0  0  0
    0.1038    0.3451    1.2797 C   0  0  1  0  0  3  0  0  0  0  0  0
   -0.6866   -0.7635    1.8857 C   0  0  0  0  0  0  0  0  0  0  0  0
   -2.0176   -0.5256    2.2863 C   0  0  0  0  0  0  0  0  0  0  0  0
   -2.4545    0.4746    2.1519 H   0  0  0  0  0  0  0  0  0  0  0  0
   -2.7729   -1.5525    2.8654 C   0  0  0  0  0  0  0  0  0  0  0  0
   -3.8088   -1.3579    3.1810 H   0  0  0  0  0  0  0  0  0  0  0  0
   -2.2086   -2.8264    3.0434 C   0  0  0  0  0  0  0  0  0  0  0  0
   -2.8060   -3.6350    3.4912 H   0  0  0  0  0  0  0  0  0  0  0  0
   -0.8872   -3.0713    2.6363 C   0  0  0  0  0  0  0  0  0  0  0  0
   -0.4517   -4.0759    2.7432 H   0  0  0  0  0  0  0  0  0  0  0  0
   -0.1239   -2.0484    2.0586 C   0  0  0  0  0  0  0  0  0  0  0  0
    0.8786   -2.2724    1.6571 H   0  0  0  0  0  0  0  0  0  0  0  0
   -2.2086    3.3603    0.6941 C   0  0  0  0  0  0  0  0  0  0  0  0
   -1.8600    2.9116    1.6445 H   0  0  0  0  0  0  0  0  0  0  0  0
   -3.2311    3.7530    0.8732 H   0  0  0  0  0  0  0  0  0  0  0  0
   -1.2585    4.4774    0.2625 C   0  0  0  0  0  0  0  0  0  0  0  0
   -0.2332    4.0788    0.1343 H   0  0  0  0  0  0  0  0  0  0  0  0
   -1.2288    5.2767    1.0299 H   0  0  0  0  0  0  0  0  0  0  0  0
   -1.5814    4.9358   -0.6942 H   0  0  0  0  0  0  0  0  0  0  0  0
   -3.3627    2.4243   -1.3251 C   0  0  0  0  0  0  0  0  0  0  0  0
   -2.9702    1.9983   -2.2711 H   0  0  0  0  0  0  0  0  0  0  0  0
   -3.5238    3.5095   -1.4943 H   0  0  0  0  0  0  0  0  0  0  0  0
   -4.6687    1.7330   -0.9338 C   0  0  0  0  0  0  0  0  0  0  0  0
   -5.4318    1.8715   -1.7255 H   0  0  0  0  0  0  0  0  0  0  0  0
   -5.0787    2.1446    0.0112 H   0  0  0  0  0  0  0  0  0  0  0  0
   -4.5008    0.6459   -0.8020 H   0  0  0  0  0  0  0  0  0  0  0  0
    2.4245    1.2289    1.0938 C   0  0  0  0  0  0  0  0  0  0  0  0
    2.3847    1.7072   -0.2323 C   0  0  0  0  0  0  0  0  0  0  0  0
    1.5647    1.4074   -0.8969 H   0  0  0  0  0  0  0  0  0  0  0  0
    3.4235    2.5224   -0.6987 C   0  0  0  0  0  0  0  0  0  0  0  0
    3.3939    2.8827   -1.7379 H   0  0  0  0  0  0  0  0  0  0  0  0
    4.5040    2.8602    0.1327 C   0  0  0  0  0  0  0  0  0  0  0  0
    5.3166    3.4975   -0.2465 H   0  0  0  0  0  0  0  0  0  0  0  0
    4.5485    2.3662    1.4457 C   0  0  0  0  0  0  0  0  0  0  0  0
    5.3947    2.6139    2.1038 H   0  0  0  0  0  0  0  0  0  0  0  0
    3.5124    1.5565    1.9280 C   0  0  0  0  0  0  0  0  0  0  0  0
    3.5401    1.1753    2.9609 H   0  0  0  0  0  0  0  0  0  0  0  0
  3  6  1  0  0  0  0
  3 19  1  0  0  0  0
  4  5  1  0  0  0  0
  6  1  1  6  0  0  0
  6  2  1  0  0  0  0
  7  2  1  1  0  0  0
  7  4  1  0  0  0  0
  7  8  1  0  0  0  0
  8 17  2  0  0  0  0
  8  9  1  0  0  0  0
  9 11  2  0  0  0  0
 10  9  1  0  0  0  0
 11 13  1  0  0  0  0
 11 12  1  0  0  0  0
 13 14  1  0  0  0  0
 15 16  1  0  0  0  0
 15 13  2  0  0  0  0
 17 15  1  0  0  0  0
 18 17  1  0  0  0  0
 19 21  1  0  0  0  0
 19 20  1  0  0  0  0
 22 19  1  0  0  0  0
 22 24  1  0  0  0  0
 23 22  1  0  0  0  0
 25 22  1  0  0  0  0
 26 29  1  0  0  0  0
 26  3  1  0  0  0  0
 27 26  1  0  0  0  0
 28 26  1  0  0  0  0
 29 32  1  0  0  0  0
 29 31  1  0  0  0  0
 30 29  1  0  0  0  0
 33  4  1  0  0  0  0
 33 42  1  0  0  0  0
 34 33  2  0  0  0  0
 35 34  1  0  0  0  0
 36 34  1  0  0  0  0
 36 38  2  0  0  0  0
 37 36  1  0  0  0  0
 38 40  1  0  0  0  0
 39 38  1  0  0  0  0
 40 42  2  0  0  0  0
 40 41  1  0  0  0  0
 42 43  1  0  0  0  0
M  END
