1
 OpenBabel05122313063D

 33 33  0  0  1  0  0  0  0  0999 V2000
   -1.5582   -1.4892   -0.0513 S   0  0  0  0  0  1  0  0  0  0  0  0
   -0.9915    1.2065   -0.0571 N   0  0  0  0  0  2  0  0  0  0  0  0
   -3.2165    0.6090   -0.0291 N   0  0  0  0  0  0  0  0  0  0  0  0
    0.3217    0.7304    1.8390 N   0  0  0  0  0  4  0  0  0  0  0  0
    1.2536    0.7902    2.2512 H   0  0  0  0  0  0  0  0  0  0  0  0
   -0.2086   -0.1225    2.0468 H   0  0  0  0  0  0  0  0  0  0  0  0
   -1.9128    0.2266   -0.0032 C   0  0  1  0  0  3  0  0  0  0  0  0
    0.1025    1.3454    0.6507 C   0  0  0  0  0  0  0  0  0  0  0  0
    1.1510    2.2790    0.1646 C   0  0  0  0  0  0  0  0  0  0  0  0
    2.5149    1.9270    0.2635 C   0  0  0  0  0  0  0  0  0  0  0  0
    2.8121    0.9341    0.6420 H   0  0  0  0  0  0  0  0  0  0  0  0
    3.4943    2.8011   -0.2295 C   0  0  0  0  0  0  0  0  0  0  0  0
    4.5540    2.5107   -0.1751 H   0  0  0  0  0  0  0  0  0  0  0  0
    3.1253    4.0246   -0.8098 C   0  0  0  0  0  0  0  0  0  0  0  0
    3.8986    4.7089   -1.1905 H   0  0  0  0  0  0  0  0  0  0  0  0
    1.7669    4.3683   -0.9212 C   0  0  0  0  0  0  0  0  0  0  0  0
    1.4754    5.3230   -1.3844 H   0  0  0  0  0  0  0  0  0  0  0  0
    0.7818    3.4943   -0.4471 C   0  0  0  0  0  0  0  0  0  0  0  0
   -0.2855    3.7433   -0.5357 H   0  0  0  0  0  0  0  0  0  0  0  0
   -3.5565    2.0352    0.0003 C   0  0  0  0  0  0  0  0  0  0  0  0
   -4.5291    2.1508   -0.5199 H   0  0  0  0  0  0  0  0  0  0  0  0
   -2.7908    2.5735   -0.5930 H   0  0  0  0  0  0  0  0  0  0  0  0
   -3.6258    2.6038    1.4172 C   0  0  0  0  0  0  0  0  0  0  0  0
   -3.9019    3.6770    1.3902 H   0  0  0  0  0  0  0  0  0  0  0  0
   -2.6440    2.5151    1.9233 H   0  0  0  0  0  0  0  0  0  0  0  0
   -4.3813    2.0731    2.0316 H   0  0  0  0  0  0  0  0  0  0  0  0
   -4.3181   -0.3546   -0.0995 C   0  0  0  0  0  0  0  0  0  0  0  0
   -5.1774    0.0947    0.4398 H   0  0  0  0  0  0  0  0  0  0  0  0
   -4.0186   -1.2612    0.4640 H   0  0  0  0  0  0  0  0  0  0  0  0
   -4.6996   -0.7201   -1.5336 C   0  0  0  0  0  0  0  0  0  0  0  0
   -5.5482   -1.4328   -1.5338 H   0  0  0  0  0  0  0  0  0  0  0  0
   -3.8445   -1.2009   -2.0477 H   0  0  0  0  0  0  0  0  0  0  0  0
   -5.0033    0.1744   -2.1142 H   0  0  0  0  0  0  0  0  0  0  0  0
  2  7  1  0  0  0  0
  2  8  1  0  0  0  0
  3  7  1  0  0  0  0
  3 20  1  0  0  0  0
  4  6  1  0  0  0  0
  4  5  1  0  0  0  0
  7  1  1  6  0  0  0
  8  4  2  0  0  0  0
  9 10  1  0  0  0  0
  9  8  1  0  0  0  0
 10 11  1  0  0  0  0
 12 13  1  0  0  0  0
 12 10  2  0  0  0  0
 14 12  1  0  0  0  0
 15 14  1  0  0  0  0
 16 14  2  0  0  0  0
 16 18  1  0  0  0  0
 17 16  1  0  0  0  0
 18  9  2  0  0  0  0
 19 18  1  0  0  0  0
 20 23  1  0  0  0  0
 21 20  1  0  0  0  0
 22 20  1  0  0  0  0
 23 25  1  0  0  0  0
 23 26  1  0  0  0  0
 24 23  1  0  0  0  0
 27  3  1  0  0  0  0
 27 28  1  0  0  0  0
 27 29  1  0  0  0  0
 30 27  1  0  0  0  0
 31 30  1  0  0  0  0
 32 30  1  0  0  0  0
 33 30  1  0  0  0  0
M  END
