1
 OpenBabel05122313063D

 17 17  0  0  0  0  0  0  0  0999 V2000
   -0.0745    2.9114    0.0329 S   0  0  0  0  0  1  0  0  0  0  0  0
    4.3482   -0.4856   -0.0343 S   0  0  0  0  0  0  0  0  0  0  0  0
    2.5344    3.2961    0.1305 N   0  0  0  0  0  4  0  0  0  0  0  0
    3.5183    3.0279    0.1409 H   0  0  0  0  0  0  0  0  0  0  0  0
    2.2589    4.2747    0.1370 H   0  0  0  0  0  0  0  0  0  0  0  0
    2.0436    1.0709    0.0467 N   0  0  0  0  0  2  0  0  0  0  0  0
    1.1351    0.0837   -0.0049 N   0  0  0  0  0  0  0  0  0  0  0  0
    1.5959    2.3148    0.0706 C   0  0  0  0  0  0  0  0  0  0  0  0
    1.5972   -1.1425   -0.0699 C   0  0  0  0  0  0  0  0  0  0  0  0
    0.8304   -1.9347   -0.1172 H   0  0  0  0  0  0  0  0  0  0  0  0
    2.9705   -1.5729   -0.0928 C   0  0  0  0  0  0  0  0  0  0  0  0
    3.3983   -2.9041   -0.1640 C   0  0  0  0  0  0  0  0  0  0  0  0
    2.6904   -3.7437   -0.2100 H   0  0  0  0  0  0  0  0  0  0  0  0
    4.8100   -3.0424   -0.1707 C   0  0  0  0  0  0  0  0  0  0  0  0
    5.3362   -4.0054   -0.2223 H   0  0  0  0  0  0  0  0  0  0  0  0
    5.4555   -1.8169   -0.1048 C   0  0  0  0  0  0  0  0  0  0  0  0
    6.5370   -1.6290   -0.0943 H   0  0  0  0  0  0  0  0  0  0  0  0
  1  8  1  0  0  0  0
  3  5  1  0  0  0  0
  3  4  1  0  0  0  0
  6  8  1  0  0  0  0
  7  6  1  0  0  0  0
  8  3  2  0  0  0  0
  9  7  2  0  0  0  0
 10  9  1  0  0  0  0
 11  9  1  0  0  0  0
 11  2  1  0  0  0  0
 12 11  2  0  0  0  0
 13 12  1  0  0  0  0
 14 12  1  0  0  0  0
 14 16  2  0  0  0  0
 15 14  1  0  0  0  0
 16 17  1  0  0  0  0
 16  2  1  0  0  0  0
M  END
