1
 OpenBabel05122313063D

 25 25  0  0  0  0  0  0  0  0999 V2000
   -2.8174   -1.6443   -0.9434 S   0  0  0  0  0  1  0  0  0  0  0  0
   -5.1468   -1.1387   -0.0169 O   0  0  0  0  0  0  0  0  0  0  0  0
   -3.7869    0.6656    0.3185 N   0  0  0  0  0  0  0  0  0  0  0  0
   -3.9451   -0.5282   -0.1299 C   0  0  0  0  0  0  0  0  0  0  0  0
   -2.6771    1.4771    0.1623 C   0  0  0  0  0  0  0  0  0  0  0  0
   -2.3691    2.0794   -1.0869 C   0  0  0  0  0  0  0  0  0  0  0  0
   -2.9848    1.8210   -1.9606 H   0  0  0  0  0  0  0  0  0  0  0  0
   -1.3221    2.9999   -1.1976 C   0  0  0  0  0  0  0  0  0  0  0  0
   -1.1226    3.4680   -2.1763 H   0  0  0  0  0  0  0  0  0  0  0  0
   -0.5215    3.3522   -0.0874 C   0  0  0  0  0  0  0  0  0  0  0  0
   -0.8212    2.7416    1.1450 C   0  0  0  0  0  0  0  0  0  0  0  0
   -0.2153    2.9912    2.0301 H   0  0  0  0  0  0  0  0  0  0  0  0
   -1.8745    1.8255    1.2757 C   0  0  0  0  0  0  0  0  0  0  0  0
   -2.1068    1.3739    2.2512 H   0  0  0  0  0  0  0  0  0  0  0  0
    0.6142    4.3349   -0.2274 C   0  0  0  0  0  0  0  0  0  0  0  0
    1.0530    4.5878    0.7573 H   0  0  0  0  0  0  0  0  0  0  0  0
    0.2829    5.2797   -0.7070 H   0  0  0  0  0  0  0  0  0  0  0  0
    1.4312    3.9236   -0.8599 H   0  0  0  0  0  0  0  0  0  0  0  0
   -6.2168   -0.3577    0.5423 C   0  0  0  0  0  0  0  0  0  0  0  0
   -6.3438    0.5697   -0.0578 H   0  0  0  0  0  0  0  0  0  0  0  0
   -5.9291   -0.0292    1.5646 H   0  0  0  0  0  0  0  0  0  0  0  0
   -7.4631   -1.2202    0.5428 C   0  0  0  0  0  0  0  0  0  0  0  0
   -8.3161   -0.6561    0.9698 H   0  0  0  0  0  0  0  0  0  0  0  0
   -7.3118   -2.1352    1.1494 H   0  0  0  0  0  0  0  0  0  0  0  0
   -7.7313   -1.5313   -0.4865 H   0  0  0  0  0  0  0  0  0  0  0  0
  1  4  1  0  0  0  0
  2 19  1  0  0  0  0
  4  2  1  0  0  0  0
  4  3  2  0  0  0  0
  5  3  1  0  0  0  0
  5 13  1  0  0  0  0
  6  5  2  0  0  0  0
  7  6  1  0  0  0  0
  8  6  1  0  0  0  0
  8 10  2  0  0  0  0
  9  8  1  0  0  0  0
 10 11  1  0  0  0  0
 11 13  2  0  0  0  0
 11 12  1  0  0  0  0
 13 14  1  0  0  0  0
 15 10  1  0  0  0  0
 15 16  1  0  0  0  0
 17 15  1  0  0  0  0
 18 15  1  0  0  0  0
 19 22  1  0  0  0  0
 19 21  1  0  0  0  0
 20 19  1  0  0  0  0
 22 23  1  0  0  0  0
 22 24  1  0  0  0  0
 25 22  1  0  0  0  0
M  END
