2
 OpenBabel05122313063D

 22 22  0  0  0  0  0  0  0  0999 V2000
   -5.9067    1.6929   -1.3796 Cl  0  0  0  0  0  0  0  0  0  0  0  0
   -2.1279   -1.4632    0.1270 S   0  0  0  0  0  1  0  0  0  0  0  0
   -1.7588    1.0730    0.7445 O   0  0  0  0  0  0  0  0  0  0  0  0
   -3.9691    0.5451    0.5432 N   0  0  0  0  0  0  0  0  0  0  0  0
   -2.7435    0.1642    0.5065 C   0  0  0  0  0  0  0  0  0  0  0  0
   -5.0835   -0.2536    0.3572 C   0  0  0  0  0  0  0  0  0  0  0  0
   -6.1230    0.1954   -0.5033 C   0  0  0  0  0  0  0  0  0  0  0  0
   -7.3044   -0.5375   -0.6760 C   0  0  0  0  0  0  0  0  0  0  0  0
   -8.0744   -0.1512   -1.3587 H   0  0  0  0  0  0  0  0  0  0  0  0
   -7.4868   -1.7424    0.0195 C   0  0  0  0  0  0  0  0  0  0  0  0
   -8.4172   -2.3142   -0.1138 H   0  0  0  0  0  0  0  0  0  0  0  0
   -6.4795   -2.2052    0.8813 C   0  0  0  0  0  0  0  0  0  0  0  0
   -6.6141   -3.1479    1.4334 H   0  0  0  0  0  0  0  0  0  0  0  0
   -5.2968   -1.4741    1.0442 C   0  0  0  0  0  0  0  0  0  0  0  0
   -4.5067   -1.8329    1.7196 H   0  0  0  0  0  0  0  0  0  0  0  0
   -2.1611    2.4454    0.9293 C   0  0  0  0  0  0  0  0  0  0  0  0
   -2.7482    2.5278    1.8694 H   0  0  0  0  0  0  0  0  0  0  0  0
   -2.8482    2.7304    0.1050 H   0  0  0  0  0  0  0  0  0  0  0  0
   -0.8991    3.2862    0.9617 C   0  0  0  0  0  0  0  0  0  0  0  0
   -1.1580    4.3534    1.1105 H   0  0  0  0  0  0  0  0  0  0  0  0
   -0.3311    3.1941    0.0143 H   0  0  0  0  0  0  0  0  0  0  0  0
   -0.2308    2.9763    1.7908 H   0  0  0  0  0  0  0  0  0  0  0  0
  1  7  1  0  0  0  0
  2  5  1  0  0  0  0
  3 16  1  0  0  0  0
  5  4  2  0  0  0  0
  5  3  1  0  0  0  0
  6  4  1  0  0  0  0
  6 14  1  0  0  0  0
  7  6  2  0  0  0  0
  8  7  1  0  0  0  0
  8 10  2  0  0  0  0
  9  8  1  0  0  0  0
 10 12  1  0  0  0  0
 11 10  1  0  0  0  0
 12 14  2  0  0  0  0
 12 13  1  0  0  0  0
 14 15  1  0  0  0  0
 16 19  1  0  0  0  0
 16 17  1  0  0  0  0
 18 16  1  0  0  0  0
 19 20  1  0  0  0  0
 19 22  1  0  0  0  0
 21 19  1  0  0  0  0
M  END
