1
 OpenBabel05122313063D

 29 30  0  0  1  0  0  0  0  0999 V2000
    0.4890   -0.7276   -0.1898 S   0  0  0  0  0  0  0  0  0  0  0  0
    2.0602   -0.9819   -1.2186 C   0  0  2  0  0  0  0  0  0  0  0  0
    1.8747   -0.4471   -2.1689 H   0  0  0  0  0  0  0  0  0  0  0  0
    2.3207   -2.4353   -1.4693 C   0  0  0  0  0  0  0  0  0  0  0  0
    2.2879   -2.7759   -2.5175 H   0  0  0  0  0  0  0  0  0  0  0  0
    2.5449   -3.3630   -0.4868 C   0  0  0  0  0  0  0  0  0  0  0  0
    2.5881   -4.4203   -0.8000 H   0  0  0  0  0  0  0  0  0  0  0  0
    2.7534   -3.1090    0.9141 C   0  0  0  0  0  0  0  0  0  0  0  0
    2.6214   -3.9668    1.5939 H   0  0  0  0  0  0  0  0  0  0  0  0
    3.2523   -1.9450    1.4600 C   0  0  0  0  0  0  0  0  0  0  0  0
    3.4782   -1.9507    2.5388 H   0  0  0  0  0  0  0  0  0  0  0  0
    3.6691   -0.7788    0.7267 C   0  0  0  0  0  0  0  0  0  0  0  0
    4.4373   -0.1519    1.2103 H   0  0  0  0  0  0  0  0  0  0  0  0
    3.2264   -0.3717   -0.5013 C   0  0  0  0  0  0  0  0  0  0  0  0
    3.7166    0.4859   -0.9865 H   0  0  0  0  0  0  0  0  0  0  0  0
   -0.7284   -1.5290   -1.3238 C   0  0  0  0  0  0  0  0  0  0  0  0
   -0.8146   -0.9389   -2.2566 H   0  0  0  0  0  0  0  0  0  0  0  0
   -0.2885   -2.5205   -1.5586 H   0  0  0  0  0  0  0  0  0  0  0  0
   -2.0512   -1.6669   -0.6195 C   0  0  0  0  0  0  0  0  0  0  0  0
   -3.1954   -0.9928   -1.0885 C   0  0  0  0  0  0  0  0  0  0  0  0
   -3.1258   -0.3685   -1.9916 H   0  0  0  0  0  0  0  0  0  0  0  0
   -4.4156   -1.1020   -0.4044 C   0  0  0  0  0  0  0  0  0  0  0  0
   -5.3001   -0.5656   -0.7796 H   0  0  0  0  0  0  0  0  0  0  0  0
   -4.5047   -1.8804    0.7587 C   0  0  0  0  0  0  0  0  0  0  0  0
   -5.4592   -1.9571    1.3008 H   0  0  0  0  0  0  0  0  0  0  0  0
   -3.3690   -2.5587    1.2319 C   0  0  0  0  0  0  0  0  0  0  0  0
   -3.4325   -3.1703    2.1447 H   0  0  0  0  0  0  0  0  0  0  0  0
   -2.1518   -2.4539    0.5478 C   0  0  0  0  0  0  0  0  0  0  0  0
   -1.2571   -2.9720    0.9275 H   0  0  0  0  0  0  0  0  0  0  0  0
  2  3  1  6  0  0  0
  2 14  1  0  0  0  0
  2  1  1  0  0  0  0
  4  2  1  0  0  0  0
  4  6  2  0  0  0  0
  5  4  1  0  0  0  0
  6  8  1  0  0  0  0
  7  6  1  0  0  0  0
  8 10  2  0  0  0  0
  8  9  1  0  0  0  0
 10 11  1  0  0  0  0
 12 13  1  0  0  0  0
 12 10  1  0  0  0  0
 14 12  2  0  0  0  0
 15 14  1  0  0  0  0
 16 19  1  0  0  0  0
 16  1  1  0  0  0  0
 17 16  1  0  0  0  0
 18 16  1  0  0  0  0
 19 28  1  0  0  0  0
 20 19  2  0  0  0  0
 20 22  1  0  0  0  0
 21 20  1  0  0  0  0
 22 24  2  0  0  0  0
 23 22  1  0  0  0  0
 24 26  1  0  0  0  0
 24 25  1  0  0  0  0
 26 27  1  0  0  0  0
 28 29  1  0  0  0  0
 28 26  2  0  0  0  0
M  END
