1
 OpenBabel05122313063D

 41 43  0  0  1  0  0  0  0  0999 V2000
   -1.7965   -1.7256    0.0127 S   0  0  0  0  0  1  0  0  0  0  0  0
    0.4430    4.3588   -0.5012 N   0  0  0  0  0  0  0  0  0  0  0  0
   -0.4489    3.8635   -0.6501 H   0  0  0  0  0  0  0  0  0  0  0  0
   -0.0542    1.7792    0.0166 N   0  0  0  0  0  0  0  0  0  0  0  0
   -0.3296    0.4879    0.0696 N   0  0  0  0  0  0  0  0  0  0  0  0
    0.4271   -0.2451    0.0857 H   0  0  0  0  0  0  0  0  0  0  0  0
   -2.6041    0.8860    0.1374 N   0  0  0  0  0  0  0  0  0  0  0  0
   -2.2475    1.8407    0.2691 H   0  0  0  0  0  0  0  0  0  0  0  0
    1.4779    3.5608   -0.0886 C   0  0  1  0  0  3  0  0  0  0  0  0
    2.7274    4.1830    0.1257 C   0  0  0  0  0  0  0  0  0  0  0  0
    3.5698    3.5630    0.4608 H   0  0  0  0  0  0  0  0  0  0  0  0
    2.8637    5.5572   -0.0784 C   0  0  0  0  0  0  0  0  0  0  0  0
    3.8372    6.0398    0.0942 H   0  0  0  0  0  0  0  0  0  0  0  0
    1.7585    6.3320   -0.4979 C   0  0  0  0  0  0  0  0  0  0  0  0
    1.8430    7.4139   -0.6659 H   0  0  0  0  0  0  0  0  0  0  0  0
    0.5420    5.6946   -0.7025 C   0  0  0  0  0  0  0  0  0  0  0  0
   -0.3692    6.2126   -1.0336 H   0  0  0  0  0  0  0  0  0  0  0  0
    1.2187    2.1416    0.1028 C   0  0  0  0  0  0  0  0  0  0  0  0
   -1.6171   -0.0254    0.0626 C   0  0  2  0  0  3  0  0  0  0  0  0
   -4.0145    0.7740    0.1321 C   0  0  0  0  0  0  0  0  0  0  0  0
   -4.7097   -0.3651   -0.3209 C   0  0  0  0  0  0  0  0  0  0  0  0
   -4.1679   -1.2420   -0.6950 H   0  0  0  0  0  0  0  0  0  0  0  0
   -6.1112   -0.3638   -0.3002 C   0  0  0  0  0  0  0  0  0  0  0  0
   -6.6491   -1.2550   -0.6555 H   0  0  0  0  0  0  0  0  0  0  0  0
   -6.8261    0.7518    0.1611 C   0  0  0  0  0  0  0  0  0  0  0  0
   -7.9255    0.7376    0.1754 H   0  0  0  0  0  0  0  0  0  0  0  0
   -6.1288    1.8883    0.6034 C   0  0  0  0  0  0  0  0  0  0  0  0
   -6.6772    2.7697    0.9668 H   0  0  0  0  0  0  0  0  0  0  0  0
   -4.7310    1.9021    0.5897 C   0  0  0  0  0  0  0  0  0  0  0  0
   -4.1844    2.7902    0.9467 H   0  0  0  0  0  0  0  0  0  0  0  0
    2.3300    1.1899    0.3531 C   0  0  0  0  0  0  0  0  0  0  0  0
    3.3171    0.9623   -0.6331 C   0  0  0  0  0  0  0  0  0  0  0  0
    3.2854    1.5200   -1.5819 H   0  0  0  0  0  0  0  0  0  0  0  0
    4.3100   -0.0025   -0.4193 C   0  0  0  0  0  0  0  0  0  0  0  0
    5.0584   -0.1977   -1.2009 H   0  0  0  0  0  0  0  0  0  0  0  0
    4.3319   -0.7390    0.7751 C   0  0  0  0  0  0  0  0  0  0  0  0
    5.0985   -1.5115    0.9296 H   0  0  0  0  0  0  0  0  0  0  0  0
    3.3676   -0.5034    1.7677 C   0  0  0  0  0  0  0  0  0  0  0  0
    3.3860   -1.0816    2.7026 H   0  0  0  0  0  0  0  0  0  0  0  0
    2.3644    0.4500    1.5600 C   0  0  0  0  0  0  0  0  0  0  0  0
    1.6043    0.6268    2.3366 H   0  0  0  0  0  0  0  0  0  0  0  0
  2  9  1  0  0  0  0
  3  2  1  0  0  0  0
  4  5  1  0  0  0  0
  4 18  2  0  0  0  0
  5  6  1  0  0  0  0
  7  8  1  0  0  0  0
  9 18  1  1  0  0  0
  9 10  1  0  0  0  0
 10 11  1  0  0  0  0
 12 13  1  0  0  0  0
 12 10  2  0  0  0  0
 14 12  1  0  0  0  0
 15 14  1  0  0  0  0
 16  2  1  0  0  0  0
 16 14  2  0  0  0  0
 17 16  1  0  0  0  0
 18 31  1  0  0  0  0
 19  1  1  1  0  0  0
 19  5  1  0  0  0  0
 19  7  1  0  0  0  0
 20  7  1  0  0  0  0
 20 29  1  0  0  0  0
 21 23  1  0  0  0  0
 21 20  2  0  0  0  0
 22 21  1  0  0  0  0
 23 25  2  0  0  0  0
 24 23  1  0  0  0  0
 25 26  1  0  0  0  0
 25 27  1  0  0  0  0
 27 28  1  0  0  0  0
 29 27  2  0  0  0  0
 29 30  1  0  0  0  0
 31 40  1  0  0  0  0
 32 34  1  0  0  0  0
 32 31  2  0  0  0  0
 33 32  1  0  0  0  0
 34 36  2  0  0  0  0
 35 34  1  0  0  0  0
 36 37  1  0  0  0  0
 36 38  1  0  0  0  0
 38 39  1  0  0  0  0
 40 38  2  0  0  0  0
 40 41  1  0  0  0  0
M  END
