1
 OpenBabel05122313063D

 38 37  0  0  0  0  0  0  0  0999 V2000
    0.3498   -0.3296   -1.3459 S   0  0  0  0  0  1  0  0  0  0  0  0
    1.8639    0.0135    0.0267 P   0  0  0  0  0  4  0  0  0  0  0  0
    1.5908   -1.0066    1.6250 C   0  0  0  0  0  0  0  0  0  0  0  0
    3.4189   -0.5129   -0.9574 C   0  0  0  0  0  0  0  0  0  0  0  0
    1.8883    1.8291    0.4785 C   0  0  0  0  0  0  0  0  0  0  0  0
    0.8332    1.9342    0.8240 H   0  0  0  0  0  0  0  0  0  0  0  0
    0.5467   -0.2682    2.4874 C   0  0  0  0  0  0  0  0  0  0  0  0
   -0.4082   -0.1026    1.9496 H   0  0  0  0  0  0  0  0  0  0  0  0
    0.9012    0.7067    2.8696 H   0  0  0  0  0  0  0  0  0  0  0  0
    0.3149   -0.9074    3.3637 H   0  0  0  0  0  0  0  0  0  0  0  0
    1.0379   -2.3991    1.2702 C   0  0  0  0  0  0  0  0  0  0  0  0
    0.8468   -2.9357    2.2229 H   0  0  0  0  0  0  0  0  0  0  0  0
    1.7511   -3.0066    0.6860 H   0  0  0  0  0  0  0  0  0  0  0  0
    0.0814   -2.3544    0.7142 H   0  0  0  0  0  0  0  0  0  0  0  0
    2.9048   -1.1592    2.4176 C   0  0  0  0  0  0  0  0  0  0  0  0
    2.6680   -1.6775    3.3698 H   0  0  0  0  0  0  0  0  0  0  0  0
    3.3781   -0.1945    2.6780 H   0  0  0  0  0  0  0  0  0  0  0  0
    3.6471   -1.7840    1.8860 H   0  0  0  0  0  0  0  0  0  0  0  0
    3.4977   -2.0482   -1.0308 C   0  0  0  0  0  0  0  0  0  0  0  0
    2.5659   -2.4845   -1.4398 H   0  0  0  0  0  0  0  0  0  0  0  0
    3.7112   -2.5151   -0.0514 H   0  0  0  0  0  0  0  0  0  0  0  0
    4.3288   -2.3194   -1.7145 H   0  0  0  0  0  0  0  0  0  0  0  0
    4.6836    0.0672   -0.2983 C   0  0  0  0  0  0  0  0  0  0  0  0
    5.5673   -0.3153   -0.8506 H   0  0  0  0  0  0  0  0  0  0  0  0
    4.8015   -0.2289    0.7600 H   0  0  0  0  0  0  0  0  0  0  0  0
    4.7116    1.1714   -0.3621 H   0  0  0  0  0  0  0  0  0  0  0  0
    3.3108    0.0291   -2.3985 C   0  0  0  0  0  0  0  0  0  0  0  0
    4.2337   -0.2667   -2.9400 H   0  0  0  0  0  0  0  0  0  0  0  0
    3.2314    1.1294   -2.4406 H   0  0  0  0  0  0  0  0  0  0  0  0
    2.4462   -0.4016   -2.9384 H   0  0  0  0  0  0  0  0  0  0  0  0
    2.0104    2.7361   -0.7518 C   0  0  0  0  0  0  0  0  0  0  0  0
    1.6842    3.7559   -0.4647 H   0  0  0  0  0  0  0  0  0  0  0  0
    1.3466    2.4017   -1.5710 H   0  0  0  0  0  0  0  0  0  0  0  0
    3.0539    2.8077   -1.1195 H   0  0  0  0  0  0  0  0  0  0  0  0
    2.8292    2.2684    1.6081 C   0  0  0  0  0  0  0  0  0  0  0  0
    3.8986    2.1799    1.3387 H   0  0  0  0  0  0  0  0  0  0  0  0
    2.6639    1.7220    2.5545 H   0  0  0  0  0  0  0  0  0  0  0  0
    2.6322    3.3396    1.8180 H   0  0  0  0  0  0  0  0  0  0  0  0
  1  2  1  0  0  0  0
  2  5  1  0  0  0  0
  2  3  1  0  0  0  0
  3 15  1  0  0  0  0
  3  7  1  0  0  0  0
  4 23  1  0  0  0  0
  4  2  1  0  0  0  0
  5  6  1  0  0  0  0
  5 35  1  0  0  0  0
  7  9  1  0  0  0  0
  7 10  1  0  0  0  0
  8  7  1  0  0  0  0
 11  3  1  0  0  0  0
 11 12  1  0  0  0  0
 13 11  1  0  0  0  0
 14 11  1  0  0  0  0
 15 17  1  0  0  0  0
 15 16  1  0  0  0  0
 18 15  1  0  0  0  0
 19  4  1  0  0  0  0
 19 21  1  0  0  0  0
 20 19  1  0  0  0  0
 22 19  1  0  0  0  0
 23 25  1  0  0  0  0
 24 23  1  0  0  0  0
 26 23  1  0  0  0  0
 27  4  1  0  0  0  0
 28 27  1  0  0  0  0
 29 27  1  0  0  0  0
 30 27  1  0  0  0  0
 31 32  1  0  0  0  0
 31  5  1  0  0  0  0
 33 31  1  0  0  0  0
 34 31  1  0  0  0  0
 35 38  1  0  0  0  0
 35 37  1  0  0  0  0
 36 35  1  0  0  0  0
M  END
