1
 OpenBabel05122313063D

 29 29  0  0  0  0  0  0  0  0999 V2000
    0.1787    1.3273   -2.0443 S   0  0  0  0  0  0  0  0  0  0  0  0
   -2.1257    1.1610    0.1742 O   0  0  0  0  0  0  0  0  0  0  0  0
    2.1451    1.0780    0.5178 O   0  0  0  0  0  0  0  0  0  0  0  0
   -0.1674    0.4110    2.2068 N   0  0  0  0  0  0  0  0  0  0  0  0
   -2.3021    1.9768   -0.9649 C   0  0  0  0  0  0  0  0  0  0  0  0
   -0.9942    2.6120   -1.4554 C   0  0  0  0  0  0  0  0  0  0  0  0
    1.8197    2.0381   -1.6380 C   0  0  0  0  0  0  0  0  0  0  0  0
    2.1051    2.3061   -0.1671 C   0  0  0  0  0  0  0  0  0  0  0  0
    2.1995    1.1373    1.9342 C   0  0  0  0  0  0  0  0  0  0  0  0
    0.8340    1.4178    2.5626 C   0  0  0  0  0  0  0  0  0  0  0  0
   -1.5588    0.8089    2.4597 C   0  0  0  0  0  0  0  0  0  0  0  0
   -2.0783    1.8073    1.4296 C   0  0  0  0  0  0  0  0  0  0  0  0
    0.0345   -0.4736    2.6891 H   0  0  0  0  0  0  0  0  0  0  0  0
   -2.7254    1.3084   -1.7428 H   0  0  0  0  0  0  0  0  0  0  0  0
   -3.0414    2.7883   -0.7675 H   0  0  0  0  0  0  0  0  0  0  0  0
   -1.2049    3.3056   -2.2951 H   0  0  0  0  0  0  0  0  0  0  0  0
   -0.5136    3.1963   -0.6439 H   0  0  0  0  0  0  0  0  0  0  0  0
    1.9625    2.9602   -2.2364 H   0  0  0  0  0  0  0  0  0  0  0  0
    2.5177    1.2591   -2.0076 H   0  0  0  0  0  0  0  0  0  0  0  0
    1.3447    3.0028    0.2651 H   0  0  0  0  0  0  0  0  0  0  0  0
    3.0903    2.8302   -0.0936 H   0  0  0  0  0  0  0  0  0  0  0  0
    2.9295    1.9078    2.2753 H   0  0  0  0  0  0  0  0  0  0  0  0
    2.5714    0.1392    2.2430 H   0  0  0  0  0  0  0  0  0  0  0  0
    0.4646    2.4053    2.2154 H   0  0  0  0  0  0  0  0  0  0  0  0
    0.9611    1.5139    3.6687 H   0  0  0  0  0  0  0  0  0  0  0  0
   -1.6891    1.2508    3.4768 H   0  0  0  0  0  0  0  0  0  0  0  0
   -2.1812   -0.1051    2.3871 H   0  0  0  0  0  0  0  0  0  0  0  0
   -3.0970    2.1456    1.7349 H   0  0  0  0  0  0  0  0  0  0  0  0
   -1.4331    2.7193    1.3955 H   0  0  0  0  0  0  0  0  0  0  0  0
  1  7  1  0  0  0  0
  1  6  1  0  0  0  0
  2 12  1  0  0  0  0
  3  9  1  0  0  0  0
  4 11  1  0  0  0  0
  4 10  1  0  0  0  0
  4 13  1  0  0  0  0
  5 15  1  0  0  0  0
  5  2  1  0  0  0  0
  6  5  1  0  0  0  0
  6 17  1  0  0  0  0
  7  8  1  0  0  0  0
  8 21  1  0  0  0  0
  8 20  1  0  0  0  0
  8  3  1  0  0  0  0
  9 23  1  0  0  0  0
  9 22  1  0  0  0  0
  9 10  1  0  0  0  0
 10 25  1  0  0  0  0
 11 26  1  0  0  0  0
 12 28  1  0  0  0  0
 12 11  1  0  0  0  0
 14  5  1  0  0  0  0
 16  6  1  0  0  0  0
 18  7  1  0  0  0  0
 19  7  1  0  0  0  0
 24 10  1  0  0  0  0
 27 11  1  0  0  0  0
 29 12  1  0  0  0  0
M  END
