1
 OpenBabel05122313063D

 23 24  0  0  1  0  0  0  0  0999 V2000
    1.9778    0.7195   -1.1433 S   0  0  0  0  0  1  0  0  0  0  0  0
    2.3103    2.2670    1.1595 N   0  0  0  0  0  0  0  0  0  0  0  0
    3.3673    2.8550    1.7765 N   0  0  0  0  0  0  0  0  0  0  0  0
    4.4750    2.6350    1.1367 N   0  0  0  0  0  0  0  0  0  0  0  0
    4.1483    1.8795    0.0531 N   0  0  0  0  0  0  0  0  0  0  0  0
    2.8005    1.6435    0.0745 C   0  0  0  0  0  0  0  0  0  0  0  0
    5.1440    1.3109   -0.8609 C   0  0  1  0  0  0  0  0  0  0  0  0
    4.6472    1.2790   -1.8526 H   0  0  0  0  0  0  0  0  0  0  0  0
    6.3830    2.2047   -0.9430 C   0  0  0  0  0  0  0  0  0  0  0  0
    6.1070    3.2318   -1.2512 H   0  0  0  0  0  0  0  0  0  0  0  0
    7.0866    1.7822   -1.6855 H   0  0  0  0  0  0  0  0  0  0  0  0
    6.8940    2.2643    0.0359 H   0  0  0  0  0  0  0  0  0  0  0  0
    5.4701   -0.1212   -0.4533 C   0  0  0  0  0  0  0  0  0  0  0  0
    5.3705   -1.1674   -1.3880 C   0  0  0  0  0  0  0  0  0  0  0  0
    5.0305   -0.9467   -2.4121 H   0  0  0  0  0  0  0  0  0  0  0  0
    5.6884   -2.4844   -1.0193 C   0  0  0  0  0  0  0  0  0  0  0  0
    5.6035   -3.2952   -1.7589 H   0  0  0  0  0  0  0  0  0  0  0  0
    6.1059   -2.7654    0.2910 C   0  0  0  0  0  0  0  0  0  0  0  0
    6.3543   -3.7973    0.5823 H   0  0  0  0  0  0  0  0  0  0  0  0
    6.1985   -1.7257    1.2315 C   0  0  0  0  0  0  0  0  0  0  0  0
    6.5165   -1.9416    2.2628 H   0  0  0  0  0  0  0  0  0  0  0  0
    5.8804   -0.4105    0.8630 C   0  0  0  0  0  0  0  0  0  0  0  0
    5.9328    0.4027    1.6043 H   0  0  0  0  0  0  0  0  0  0  0  0
  1  6  1  0  0  0  0
  2  3  1  0  0  0  0
  4  3  2  0  0  0  0
  5  6  1  0  0  0  0
  5  4  1  0  0  0  0
  6  2  2  0  0  0  0
  7  8  1  6  0  0  0
  7 13  1  0  0  0  0
  7  5  1  0  0  0  0
  9  7  1  0  0  0  0
  9 12  1  0  0  0  0
 10  9  1  0  0  0  0
 11  9  1  0  0  0  0
 13 22  1  0  0  0  0
 14 16  1  0  0  0  0
 14 13  2  0  0  0  0
 15 14  1  0  0  0  0
 16 18  2  0  0  0  0
 17 16  1  0  0  0  0
 18 19  1  0  0  0  0
 18 20  1  0  0  0  0
 20 21  1  0  0  0  0
 22 20  2  0  0  0  0
 22 23  1  0  0  0  0
M  END
