1
 OpenBabel05122313063D

 28 28  0  0  0  0  0  0  0  0999 V2000
    2.7262    0.9727   -0.7700 S   0  0  0  0  0  1  0  0  0  0  0  0
    1.2167   -0.5550    1.3851 N   0  0  0  0  0  0  0  0  0  0  0  0
    2.5016   -0.8988    1.2551 N   0  0  0  0  0  0  0  0  0  0  0  0
    4.6371   -0.4135    0.5208 N   0  0  0  0  0  0  0  0  0  0  0  0
   -1.9554   -2.0609    2.0473 N   0  0  0  0  0  0  0  0  0  0  0  0
   -1.0086   -1.0891    2.0218 C   0  0  0  0  0  0  0  0  0  0  0  0
   -1.3408    0.2765    2.2326 C   0  0  0  0  0  0  0  0  0  0  0  0
   -2.6703    0.6254    2.4660 C   0  0  0  0  0  0  0  0  0  0  0  0
   -3.6496   -0.3849    2.4835 C   0  0  0  0  0  0  0  0  0  0  0  0
   -3.2277   -1.7063    2.2672 C   0  0  0  0  0  0  0  0  0  0  0  0
    0.3844   -1.4988    1.7752 C   0  0  0  0  0  0  0  0  0  0  0  0
    0.7911   -2.9356    1.9171 C   0  0  0  0  0  0  0  0  0  0  0  0
    3.2779   -0.1974    0.4437 C   0  0  0  0  0  0  0  0  0  0  0  0
    5.5838    0.2350   -0.3593 C   0  0  0  0  0  0  0  0  0  0  0  0
    5.1961   -1.1731    1.6246 C   0  0  0  0  0  0  0  0  0  0  0  0
   -0.5369    1.0246    2.2161 H   0  0  0  0  0  0  0  0  0  0  0  0
   -2.9446    1.6783    2.6381 H   0  0  0  0  0  0  0  0  0  0  0  0
   -4.7097   -0.1590    2.6730 H   0  0  0  0  0  0  0  0  0  0  0  0
   -3.9678   -2.5282    2.2750 H   0  0  0  0  0  0  0  0  0  0  0  0
    1.2879   -3.2717    0.9833 H   0  0  0  0  0  0  0  0  0  0  0  0
    1.5399   -3.0510    2.7290 H   0  0  0  0  0  0  0  0  0  0  0  0
   -0.0933   -3.5625    2.1287 H   0  0  0  0  0  0  0  0  0  0  0  0
    5.0971    0.4770   -1.3236 H   0  0  0  0  0  0  0  0  0  0  0  0
    5.9880    1.1815    0.0706 H   0  0  0  0  0  0  0  0  0  0  0  0
    6.4387   -0.4484   -0.5450 H   0  0  0  0  0  0  0  0  0  0  0  0
    4.3759   -1.7103    2.1324 H   0  0  0  0  0  0  0  0  0  0  0  0
    5.9438   -1.9014    1.2438 H   0  0  0  0  0  0  0  0  0  0  0  0
    5.7056   -0.5086    2.3601 H   0  0  0  0  0  0  0  0  0  0  0  0
  1 13  1  0  0  0  0
  2 11  2  0  0  0  0
  3  2  1  0  0  0  0
  4 15  1  0  0  0  0
  5 10  1  0  0  0  0
  6  5  2  0  0  0  0
  6  7  1  0  0  0  0
  7  8  2  0  0  0  0
  8  9  1  0  0  0  0
  8 17  1  0  0  0  0
  9 18  1  0  0  0  0
 10 19  1  0  0  0  0
 10  9  2  0  0  0  0
 11 12  1  0  0  0  0
 11  6  1  0  0  0  0
 12 22  1  0  0  0  0
 12 21  1  0  0  0  0
 13  4  1  0  0  0  0
 13  3  2  0  0  0  0
 14 24  1  0  0  0  0
 14  4  1  0  0  0  0
 15 26  1  0  0  0  0
 15 28  1  0  0  0  0
 16  7  1  0  0  0  0
 20 12  1  0  0  0  0
 23 14  1  0  0  0  0
 25 14  1  0  0  0  0
 27 15  1  0  0  0  0
M  END
