1
 OpenBabel05122313063D

 20 20  0  0  1  0  0  0  0  0999 V2000
   -1.5256   -0.7150   -1.8144 S   0  0  0  0  0  1  0  0  0  0  0  0
   -3.5821   -1.5654   -0.1861 N   0  0  0  0  0  0  0  0  0  0  0  0
   -3.3669    0.6119   -0.2320 N   0  0  0  0  0  0  0  0  0  0  0  0
   -2.8483   -0.5520   -0.7394 C   0  0  1  0  0  3  0  0  0  0  0  0
   -4.5240   -1.0413    0.6845 C   0  0  0  0  0  0  0  0  0  0  0  0
   -4.3889    0.3213    0.6583 C   0  0  0  0  0  0  0  0  0  0  0  0
   -3.2105   -2.9659   -0.2880 C   0  0  0  0  0  0  0  0  0  0  0  0
   -2.7272    1.9090   -0.3932 C   0  0  0  0  0  0  0  0  0  0  0  0
   -3.6366    3.0188   -0.8313 C   0  0  0  0  0  0  0  0  0  0  0  0
   -4.8882    2.8975   -1.3043 C   0  0  0  0  0  0  0  0  0  0  0  0
   -5.2026   -1.6805    1.2556 H   0  0  0  0  0  0  0  0  0  0  0  0
   -4.9290    1.1070    1.1923 H   0  0  0  0  0  0  0  0  0  0  0  0
   -2.7931   -3.1519   -1.2943 H   0  0  0  0  0  0  0  0  0  0  0  0
   -2.4285   -3.1844    0.4688 H   0  0  0  0  0  0  0  0  0  0  0  0
   -4.1008   -3.5977   -0.1151 H   0  0  0  0  0  0  0  0  0  0  0  0
   -1.9205    1.7497   -1.1450 H   0  0  0  0  0  0  0  0  0  0  0  0
   -2.2035    2.1514    0.5579 H   0  0  0  0  0  0  0  0  0  0  0  0
   -3.1753    4.0197   -0.7637 H   0  0  0  0  0  0  0  0  0  0  0  0
   -5.3829    1.9176   -1.3983 H   0  0  0  0  0  0  0  0  0  0  0  0
   -5.4596    3.7815   -1.6246 H   0  0  0  0  0  0  0  0  0  0  0  0
  2  5  1  0  0  0  0
  3  6  1  0  0  0  0
  4  1  1  1  0  0  0
  4  3  1  0  0  0  0
  4  2  1  0  0  0  0
  5 11  1  0  0  0  0
  6  5  2  0  0  0  0
  6 12  1  0  0  0  0
  7  2  1  0  0  0  0
  7 15  1  0  0  0  0
  7 14  1  0  0  0  0
  8  3  1  0  0  0  0
  8 17  1  0  0  0  0
  9 18  1  0  0  0  0
  9  8  1  0  0  0  0
 10  9  2  0  0  0  0
 13  7  1  0  0  0  0
 16  8  1  0  0  0  0
 19 10  1  0  0  0  0
 20 10  1  0  0  0  0
M  END
