2
 OpenBabel05122313063D

 17 17  0  0  0  0  0  0  0  0999 V2000
   -2.5966    1.1844    1.0450 S   0  0  0  0  0  0  0  0  0  0  0  0
   -2.4898   -1.2064   -0.8406 S   0  0  0  0  0  1  0  0  0  0  0  0
   -3.3144   -0.0104    0.1226 C   0  0  0  0  0  0  0  0  0  0  0  0
   -4.8025   -0.1589    0.0864 C   0  0  0  0  0  0  0  0  0  0  0  0
   -5.3591   -1.4013    0.4683 C   0  0  0  0  0  0  0  0  0  0  0  0
   -4.6765   -2.2136    0.7590 H   0  0  0  0  0  0  0  0  0  0  0  0
   -6.7444   -1.6004    0.4919 C   0  0  0  0  0  0  0  0  0  0  0  0
   -7.1545   -2.5715    0.8079 H   0  0  0  0  0  0  0  0  0  0  0  0
   -7.5971   -0.5582    0.1012 C   0  0  0  0  0  0  0  0  0  0  0  0
   -8.6887   -0.6999    0.1037 H   0  0  0  0  0  0  0  0  0  0  0  0
   -7.0512    0.6681   -0.3046 C   0  0  0  0  0  0  0  0  0  0  0  0
   -7.7218    1.4792   -0.6305 H   0  0  0  0  0  0  0  0  0  0  0  0
   -5.6625    0.9034   -0.3158 C   0  0  0  0  0  0  0  0  0  0  0  0
   -5.1372    2.2421   -0.7652 C   0  0  0  0  0  0  0  0  0  0  0  0
   -4.7353    2.8159    0.0943 H   0  0  0  0  0  0  0  0  0  0  0  0
   -5.9384    2.8358   -1.2469 H   0  0  0  0  0  0  0  0  0  0  0  0
   -4.2976    2.1345   -1.4813 H   0  0  0  0  0  0  0  0  0  0  0  0
  2  3  1  0  0  0  0
  3  1  2  0  0  0  0
  4  3  1  0  0  0  0
  4  5  1  0  0  0  0
  5  7  2  0  0  0  0
  5  6  1  0  0  0  0
  7  8  1  0  0  0  0
  9 10  1  0  0  0  0
  9  7  1  0  0  0  0
 11  9  2  0  0  0  0
 12 11  1  0  0  0  0
 13 11  1  0  0  0  0
 13  4  2  0  0  0  0
 14 13  1  0  0  0  0
 14 15  1  0  0  0  0
 16 14  1  0  0  0  0
 17 14  1  0  0  0  0
M  END
