1
 OpenBabel05122313063D

  9  8  0  0  0  0  0  0  0  0999 V2000
    1.6024    1.4579    0.9606 S   0  0  0  0  0  1  0  0  0  0  0  0
    3.9136    1.5427   -0.3715 N   0  0  0  0  0  0  0  0  0  0  0  0
    4.1979    1.9628    0.5132 H   0  0  0  0  0  0  0  0  0  0  0  0
    2.1970    0.4645   -1.4411 O   0  0  0  0  0  0  0  0  0  0  0  0
    2.6279    1.0849   -0.4517 C   0  0  0  0  0  0  0  0  0  0  0  0
    4.9095    1.2458   -1.3766 C   0  0  0  0  0  0  0  0  0  0  0  0
    5.4351    2.1647   -1.7118 H   0  0  0  0  0  0  0  0  0  0  0  0
    4.3817    0.7945   -2.2376 H   0  0  0  0  0  0  0  0  0  0  0  0
    5.6606    0.5123   -1.0101 H   0  0  0  0  0  0  0  0  0  0  0  0
  2  3  1  0  0  0  0
  4  5  2  0  0  0  0
  5  2  1  0  0  0  0
  5  1  1  0  0  0  0
  6  9  1  0  0  0  0
  6  2  1  0  0  0  0
  7  6  1  0  0  0  0
  8  6  1  0  0  0  0
M  END
