1
 OpenBabel05122313063D

 35 37  0  0  0  0  0  0  0  0999 V2000
   -1.4428    1.4675    1.2564 S   0  0  0  0  0  1  0  0  0  0  0  0
    1.0895   -0.2179   -0.1980 P   0  0  0  0  0  0  0  0  0  0  0  0
    0.0010   -0.9793   -0.9713 O   0  0  0  0  0  0  0  0  0  0  0  0
    0.9621    1.6045   -0.2586 C   0  0  0  0  0  0  0  0  0  0  0  0
   -0.1473    2.2731    0.3381 C   0  0  0  0  0  0  0  0  0  0  0  0
   -0.1899    3.6856    0.2711 C   0  0  0  0  0  0  0  0  0  0  0  0
   -1.0439    4.1991    0.7372 H   0  0  0  0  0  0  0  0  0  0  0  0
    0.8118    4.4146   -0.3801 C   0  0  0  0  0  0  0  0  0  0  0  0
    0.7462    5.5130   -0.4171 H   0  0  0  0  0  0  0  0  0  0  0  0
    1.8842    3.7495   -0.9965 C   0  0  0  0  0  0  0  0  0  0  0  0
    2.6665    4.3153   -1.5237 H   0  0  0  0  0  0  0  0  0  0  0  0
    1.9520    2.3521   -0.9331 C   0  0  0  0  0  0  0  0  0  0  0  0
    2.7935    1.8264   -1.4082 H   0  0  0  0  0  0  0  0  0  0  0  0
    2.7307   -0.6414   -0.8930 C   0  0  0  0  0  0  0  0  0  0  0  0
    2.7509   -1.2366   -2.1688 C   0  0  0  0  0  0  0  0  0  0  0  0
    1.7931   -1.4256   -2.6774 H   0  0  0  0  0  0  0  0  0  0  0  0
    3.9756   -1.5874   -2.7570 C   0  0  0  0  0  0  0  0  0  0  0  0
    3.9907   -2.0535   -3.7540 H   0  0  0  0  0  0  0  0  0  0  0  0
    5.1783   -1.3494   -2.0729 C   0  0  0  0  0  0  0  0  0  0  0  0
    6.1383   -1.6269   -2.5345 H   0  0  0  0  0  0  0  0  0  0  0  0
    5.1583   -0.7650   -0.7950 C   0  0  0  0  0  0  0  0  0  0  0  0
    6.1005   -0.5881   -0.2543 H   0  0  0  0  0  0  0  0  0  0  0  0
    3.9373   -0.4136   -0.2019 C   0  0  0  0  0  0  0  0  0  0  0  0
    3.9225    0.0315    0.8048 H   0  0  0  0  0  0  0  0  0  0  0  0
    1.1802   -0.6900    1.5630 C   0  0  0  0  0  0  0  0  0  0  0  0
    1.7156    0.1595    2.5498 C   0  0  0  0  0  0  0  0  0  0  0  0
    2.0389    1.1779    2.2829 H   0  0  0  0  0  0  0  0  0  0  0  0
    1.8010   -0.2843    3.8771 C   0  0  0  0  0  0  0  0  0  0  0  0
    2.2100    0.3821    4.6517 H   0  0  0  0  0  0  0  0  0  0  0  0
    1.3507   -1.5699    4.2207 C   0  0  0  0  0  0  0  0  0  0  0  0
    1.4141   -1.9131    5.2646 H   0  0  0  0  0  0  0  0  0  0  0  0
    0.8112   -2.4138    3.2361 C   0  0  0  0  0  0  0  0  0  0  0  0
    0.4507   -3.4178    3.5075 H   0  0  0  0  0  0  0  0  0  0  0  0
    0.7248   -1.9768    1.9066 C   0  0  0  0  0  0  0  0  0  0  0  0
    0.2908   -2.6172    1.1231 H   0  0  0  0  0  0  0  0  0  0  0  0
  2 25  1  0  0  0  0
  3  2  2  0  0  0  0
  4  2  1  0  0  0  0
  4  5  1  0  0  0  0
  5  1  1  0  0  0  0
  6  5  2  0  0  0  0
  6  7  1  0  0  0  0
  8  6  1  0  0  0  0
  9  8  1  0  0  0  0
 10 12  1  0  0  0  0
 10  8  2  0  0  0  0
 11 10  1  0  0  0  0
 12  4  2  0  0  0  0
 13 12  1  0  0  0  0
 14 23  1  0  0  0  0
 14  2  1  0  0  0  0
 15 14  2  0  0  0  0
 16 15  1  0  0  0  0
 17 15  1  0  0  0  0
 17 19  2  0  0  0  0
 18 17  1  0  0  0  0
 19 21  1  0  0  0  0
 20 19  1  0  0  0  0
 21 22  1  0  0  0  0
 21 23  2  0  0  0  0
 23 24  1  0  0  0  0
 25 34  2  0  0  0  0
 25 26  1  0  0  0  0
 26 28  2  0  0  0  0
 27 26  1  0  0  0  0
 28 30  1  0  0  0  0
 28 29  1  0  0  0  0
 30 31  1  0  0  0  0
 32 33  1  0  0  0  0
 32 30  2  0  0  0  0
 34 32  1  0  0  0  0
 35 34  1  0  0  0  0
M  END
