8
 OpenBabel05122313063D

 21 21  0  0  0  0  0  0  0  0999 V2000
    3.6507    0.6331    0.5249 O   0  0  0  0  0  0  0  0  0  0  0  0
    3.0753    1.9038    0.3154 C   0  0  0  0  0  0  0  0  0  0  0  0
    3.7774    2.7276    0.5927 H   0  0  0  0  0  0  0  0  0  0  0  0
    2.1482    2.0217    0.9263 H   0  0  0  0  0  0  0  0  0  0  0  0
    2.7187    2.0400   -1.1562 C   0  0  0  0  0  0  0  0  0  0  0  0
    3.6134    1.9776   -1.8086 H   0  0  0  0  0  0  0  0  0  0  0  0
    2.2197    3.0091   -1.3557 H   0  0  0  0  0  0  0  0  0  0  0  0
    1.5467    0.7621   -1.7866 S   0  0  0  0  0  0  0  0  0  0  0  0
    2.6349   -0.7449   -1.8314 C   0  0  0  0  0  0  0  0  0  0  0  0
    2.7787   -0.9648   -2.9089 H   0  0  0  0  0  0  0  0  0  0  0  0
    3.5953   -0.4304   -1.3868 H   0  0  0  0  0  0  0  0  0  0  0  0
    2.1001   -1.9961   -1.1411 C   0  0  0  0  0  0  0  0  0  0  0  0
    2.8581   -2.7981   -1.2651 H   0  0  0  0  0  0  0  0  0  0  0  0
    1.1667   -2.3611   -1.6175 H   0  0  0  0  0  0  0  0  0  0  0  0
    1.6401   -1.9187    0.6251 S   0  0  0  0  0  0  0  0  0  0  0  0
    3.1961   -1.5019    1.5090 C   0  0  0  0  0  0  0  0  0  0  0  0
    3.1326   -2.0429    2.4749 H   0  0  0  0  0  0  0  0  0  0  0  0
    4.0460   -1.9390    0.9450 H   0  0  0  0  0  0  0  0  0  0  0  0
    3.4136   -0.0152    1.7598 C   0  0  0  0  0  0  0  0  0  0  0  0
    2.5190    0.4163    2.2657 H   0  0  0  0  0  0  0  0  0  0  0  0
    4.2849    0.1140    2.4452 H   0  0  0  0  0  0  0  0  0  0  0  0
  1 19  1  0  0  0  0
  2  1  1  0  0  0  0
  2  3  1  0  0  0  0
  2  4  1  0  0  0  0
  5  2  1  0  0  0  0
  6  5  1  0  0  0  0
  7  5  1  0  0  0  0
  8  5  1  0  0  0  0
  9  8  1  0  0  0  0
  9 11  1  0  0  0  0
  9 12  1  0  0  0  0
 10  9  1  0  0  0  0
 12 15  1  0  0  0  0
 13 12  1  0  0  0  0
 14 12  1  0  0  0  0
 15 16  1  0  0  0  0
 16 19  1  0  0  0  0
 16 17  1  0  0  0  0
 18 16  1  0  0  0  0
 19 20  1  0  0  0  0
 19 21  1  0  0  0  0
M  END
