1
 OpenBabel05122313063D

 12 12  0  0  0  0  0  0  0  0999 V2000
    5.3267    0.8001   -1.1020 S   0  0  0  0  0  1  0  0  0  0  0  0
    7.6776   -0.6356   -2.0295 F   0  0  0  0  0  0  0  0  0  0  0  0
    7.8513   -4.0686    1.2085 F   0  0  0  0  0  0  0  0  0  0  0  0
    5.9976   -0.6601   -0.3452 C   0  0  0  0  0  0  0  0  0  0  0  0
    7.1574   -1.2181   -0.9351 C   0  0  0  0  0  0  0  0  0  0  0  0
    7.7900   -2.3571   -0.4281 C   0  0  0  0  0  0  0  0  0  0  0  0
    8.6868   -2.7572   -0.9196 H   0  0  0  0  0  0  0  0  0  0  0  0
    7.2520   -2.9685    0.7099 C   0  0  0  0  0  0  0  0  0  0  0  0
    6.1093   -2.4571    1.3352 C   0  0  0  0  0  0  0  0  0  0  0  0
    5.7112   -2.9552    2.2301 H   0  0  0  0  0  0  0  0  0  0  0  0
    5.5001   -1.3110    0.8059 C   0  0  0  0  0  0  0  0  0  0  0  0
    4.6065   -0.8967    1.2966 H   0  0  0  0  0  0  0  0  0  0  0  0
  1  4  1  0  0  0  0
  2  5  1  0  0  0  0
  4 11  1  0  0  0  0
  5  6  1  0  0  0  0
  5  4  2  0  0  0  0
  6  8  2  0  0  0  0
  7  6  1  0  0  0  0
  8  3  1  0  0  0  0
  8  9  1  0  0  0  0
  9 10  1  0  0  0  0
 11 12  1  0  0  0  0
 11  9  2  0  0  0  0
M  END
