1
 OpenBabel05122313063D

 30 30  0  0  0  0  0  0  0  0999 V2000
    1.9382   -2.1556   -1.3781 S   0  0  0  0  0  1  0  0  0  0  0  0
    2.9352   -0.8572   -0.6111 C   0  0  0  0  0  0  0  0  0  0  0  0
    3.0256    0.4362   -1.2081 C   0  0  0  0  0  0  0  0  0  0  0  0
    3.8259    1.4111   -0.5846 C   0  0  0  0  0  0  0  0  0  0  0  0
    4.5424    1.1524    0.5984 C   0  0  0  0  0  0  0  0  0  0  0  0
    4.4417   -0.1299    1.1607 C   0  0  0  0  0  0  0  0  0  0  0  0
    3.6523   -1.1423    0.5831 C   0  0  0  0  0  0  0  0  0  0  0  0
    2.2565    0.7521   -2.4729 C   0  0  0  0  0  0  0  0  0  0  0  0
    2.4797    2.1301   -3.0889 C   0  0  0  0  0  0  0  0  0  0  0  0
    5.3444    2.2419    1.2756 C   0  0  0  0  0  0  0  0  0  0  0  0
    4.5159    3.0523    2.2844 C   0  0  0  0  0  0  0  0  0  0  0  0
    3.6103   -2.5072    1.2317 C   0  0  0  0  0  0  0  0  0  0  0  0
    4.5509   -3.5200    0.5622 C   0  0  0  0  0  0  0  0  0  0  0  0
    3.9081    2.4102   -1.0399 H   0  0  0  0  0  0  0  0  0  0  0  0
    4.9948   -0.3576    2.0878 H   0  0  0  0  0  0  0  0  0  0  0  0
    1.1707    0.6157   -2.2551 H   0  0  0  0  0  0  0  0  0  0  0  0
    2.4677   -0.0515   -3.2114 H   0  0  0  0  0  0  0  0  0  0  0  0
    5.7622    2.9269    0.5071 H   0  0  0  0  0  0  0  0  0  0  0  0
    6.2147    1.7903    1.7975 H   0  0  0  0  0  0  0  0  0  0  0  0
    2.5715   -2.8952    1.1835 H   0  0  0  0  0  0  0  0  0  0  0  0
    3.8795   -2.4018    2.3040 H   0  0  0  0  0  0  0  0  0  0  0  0
    1.8892    2.2368   -4.0207 H   0  0  0  0  0  0  0  0  0  0  0  0
    2.1635    2.9452   -2.4051 H   0  0  0  0  0  0  0  0  0  0  0  0
    3.5447    2.3028   -3.3479 H   0  0  0  0  0  0  0  0  0  0  0  0
    5.1242    3.8400    2.7746 H   0  0  0  0  0  0  0  0  0  0  0  0
    3.6563    3.5481    1.7875 H   0  0  0  0  0  0  0  0  0  0  0  0
    4.1013    2.3954    3.0761 H   0  0  0  0  0  0  0  0  0  0  0  0
    4.5075   -4.5040    1.0728 H   0  0  0  0  0  0  0  0  0  0  0  0
    4.2626   -3.6733   -0.4971 H   0  0  0  0  0  0  0  0  0  0  0  0
    5.6021   -3.1664    0.5844 H   0  0  0  0  0  0  0  0  0  0  0  0
  1  2  1  0  0  0  0
  2  7  1  0  0  0  0
  3  2  2  0  0  0  0
  3  4  1  0  0  0  0
  4  5  2  0  0  0  0
  5  6  1  0  0  0  0
  5 10  1  0  0  0  0
  6 15  1  0  0  0  0
  7  6  2  0  0  0  0
  7 12  1  0  0  0  0
  8 16  1  0  0  0  0
  8  3  1  0  0  0  0
  9  8  1  0  0  0  0
  9 23  1  0  0  0  0
 10 19  1  0  0  0  0
 10 11  1  0  0  0  0
 11 25  1  0  0  0  0
 11 27  1  0  0  0  0
 12 21  1  0  0  0  0
 13 30  1  0  0  0  0
 13 28  1  0  0  0  0
 13 12  1  0  0  0  0
 14  4  1  0  0  0  0
 17  8  1  0  0  0  0
 18 10  1  0  0  0  0
 20 12  1  0  0  0  0
 22  9  1  0  0  0  0
 24  9  1  0  0  0  0
 26 11  1  0  0  0  0
 29 13  1  0  0  0  0
M  END
