2
 OpenBabel05122313063D

 42 43  0  0  1  0  0  0  0  0999 V2000
    0.6352   -0.1674   -0.2875 S   0  0  0  0  0  0  0  0  0  0  0  0
   -0.9823    2.2876    0.0918 S   0  0  0  0  0  0  0  0  0  0  0  0
   -1.0314   -2.6972   -0.2794 S   0  0  0  0  0  0  0  0  0  0  0  0
   -3.8274   -2.3451    0.1920 S   0  0  0  0  0  0  0  0  0  0  0  0
    0.2104   -1.5617    1.8669 O   0  0  0  0  0  0  0  0  0  0  0  0
    0.4308   -1.8226    0.5212 C   0  0  2  0  0  0  0  0  0  0  0  0
    5.4395   -4.3708   -0.3962 O   0  0  0  0  0  0  0  0  0  0  0  0
   -2.0997   -0.1588    0.2487 C   0  0  0  0  0  0  0  0  0  0  0  0
   -2.9739    0.4488    0.5270 H   0  0  0  0  0  0  0  0  0  0  0  0
    1.8523   -3.5339   -0.7885 C   0  0  0  0  0  0  0  0  0  0  0  0
    0.9920   -3.7950   -1.4234 H   0  0  0  0  0  0  0  0  0  0  0  0
    1.7129   -2.5808    0.2331 C   0  0  0  0  0  0  0  0  0  0  0  0
    3.0833   -4.1612   -1.0312 C   0  0  0  0  0  0  0  0  0  0  0  0
    3.1547   -4.9041   -1.8361 H   0  0  0  0  0  0  0  0  0  0  0  0
   -0.8991    0.5947    0.0578 C   0  0  0  0  0  0  0  0  0  0  0  0
    4.2069   -3.8264   -0.2467 C   0  0  0  0  0  0  0  0  0  0  0  0
   -2.2820   -1.5178    0.0820 C   0  0  0  0  0  0  0  0  0  0  0  0
   -6.4346   -1.6190   -0.2921 C   0  0  0  0  0  0  0  0  0  0  0  0
   -6.6998   -2.2646    0.5743 H   0  0  0  0  0  0  0  0  0  0  0  0
   -6.4030   -2.2887   -1.1789 H   0  0  0  0  0  0  0  0  0  0  0  0
   -5.0522   -1.0051   -0.0702 C   0  0  0  0  0  0  0  0  0  0  0  0
   -5.0567   -0.3414    0.8195 H   0  0  0  0  0  0  0  0  0  0  0  0
   -4.7261   -0.4082   -0.9472 H   0  0  0  0  0  0  0  0  0  0  0  0
   -7.5190   -0.5520   -0.4859 C   0  0  0  0  0  0  0  0  0  0  0  0
   -7.5375    0.1159    0.4034 H   0  0  0  0  0  0  0  0  0  0  0  0
   -7.2414    0.0974   -1.3453 H   0  0  0  0  0  0  0  0  0  0  0  0
    5.6363   -5.3349   -1.4158 C   0  0  0  0  0  0  0  0  0  0  0  0
    4.9986   -6.2341   -1.2629 H   0  0  0  0  0  0  0  0  0  0  0  0
    6.6990   -5.6340   -1.3611 H   0  0  0  0  0  0  0  0  0  0  0  0
    5.4293   -4.9160   -2.4256 H   0  0  0  0  0  0  0  0  0  0  0  0
    0.0322   -2.7013    2.7084 C   0  0  0  0  0  0  0  0  0  0  0  0
   -0.8667   -3.2797    2.4045 H   0  0  0  0  0  0  0  0  0  0  0  0
   -0.1090   -2.3040    3.7299 H   0  0  0  0  0  0  0  0  0  0  0  0
    0.9190   -3.3708    2.6875 H   0  0  0  0  0  0  0  0  0  0  0  0
   -8.9078   -1.1489   -0.7147 C   0  0  0  0  0  0  0  0  0  0  0  0
   -8.9262   -1.7930   -1.6182 H   0  0  0  0  0  0  0  0  0  0  0  0
   -9.6716   -0.3580   -0.8520 H   0  0  0  0  0  0  0  0  0  0  0  0
   -9.2246   -1.7752    0.1450 H   0  0  0  0  0  0  0  0  0  0  0  0
    2.8492   -2.2405    1.0060 C   0  0  0  0  0  0  0  0  0  0  0  0
    2.7568   -1.4687    1.7847 H   0  0  0  0  0  0  0  0  0  0  0  0
    4.0767   -2.8554    0.7731 C   0  0  0  0  0  0  0  0  0  0  0  0
    4.9664   -2.5966    1.3645 H   0  0  0  0  0  0  0  0  0  0  0  0
  1 15  1  0  0  0  0
  1  6  1  0  0  0  0
  3 17  1  0  0  0  0
  3  6  1  0  0  0  0
  5 31  1  0  0  0  0
  6  5  1  1  0  0  0
  7 16  1  0  0  0  0
  8  9  1  0  0  0  0
 10 12  1  0  0  0  0
 11 10  1  0  0  0  0
 12  6  1  0  0  0  0
 12 39  2  0  0  0  0
 13 10  2  0  0  0  0
 13 16  1  0  0  0  0
 14 13  1  0  0  0  0
 15  2  2  0  0  0  0
 15  8  1  0  0  0  0
 16 41  2  0  0  0  0
 17  4  1  0  0  0  0
 17  8  2  0  0  0  0
 18 21  1  0  0  0  0
 18 19  1  0  0  0  0
 20 18  1  0  0  0  0
 21  4  1  0  0  0  0
 21 22  1  0  0  0  0
 23 21  1  0  0  0  0
 24 18  1  0  0  0  0
 24 25  1  0  0  0  0
 26 24  1  0  0  0  0
 27 29  1  0  0  0  0
 27 28  1  0  0  0  0
 27  7  1  0  0  0  0
 30 27  1  0  0  0  0
 31 33  1  0  0  0  0
 32 31  1  0  0  0  0
 34 31  1  0  0  0  0
 35 24  1  0  0  0  0
 35 38  1  0  0  0  0
 36 35  1  0  0  0  0
 37 35  1  0  0  0  0
 39 40  1  0  0  0  0
 41 39  1  0  0  0  0
 41 42  1  0  0  0  0
M  END
