1
 OpenBabel05122313063D

 16 15  0  0  0  0  0  0  0  0999 V2000
   -0.4270   -0.5028    0.0004 S   0  0  0  0  0  3  0  0  0  0  0  0
   -3.3439    0.0213   -0.0001 Si  0  0  0  0  0  0  0  0  0  0  0  0
   -0.7175   -1.9873    0.0012 O   0  0  0  0  0  0  0  0  0  0  0  0
   -1.6087    0.4856   -0.0002 N   0  0  0  0  0  2  0  0  0  0  0  0
   -4.2829    1.6509   -0.0008 C   0  0  0  0  0  0  0  0  0  0  0  0
   -4.0279    2.2519    0.8953 H   0  0  0  0  0  0  0  0  0  0  0  0
   -5.3787    1.4767   -0.0007 H   0  0  0  0  0  0  0  0  0  0  0  0
   -4.0280    2.2512   -0.8975 H   0  0  0  0  0  0  0  0  0  0  0  0
   -3.6977   -0.9858    1.5549 C   0  0  0  0  0  0  0  0  0  0  0  0
   -4.7630   -1.2935    1.5968 H   0  0  0  0  0  0  0  0  0  0  0  0
   -3.4733   -0.3984    2.4683 H   0  0  0  0  0  0  0  0  0  0  0  0
   -3.0678   -1.8979    1.5611 H   0  0  0  0  0  0  0  0  0  0  0  0
   -3.6973   -0.9869   -1.5546 C   0  0  0  0  0  0  0  0  0  0  0  0
   -4.7627   -1.2940   -1.5970 H   0  0  0  0  0  0  0  0  0  0  0  0
   -3.0679   -1.8994   -1.5596 H   0  0  0  0  0  0  0  0  0  0  0  0
   -3.4718   -0.4004   -2.4683 H   0  0  0  0  0  0  0  0  0  0  0  0
  1  3  2  0  0  0  0
  2  9  1  0  0  0  0
  4  2  1  0  0  0  0
  4  1  1  0  0  0  0
  5  7  1  0  0  0  0
  5  2  1  0  0  0  0
  5  6  1  0  0  0  0
  8  5  1  0  0  0  0
  9 12  1  0  0  0  0
  9 10  1  0  0  0  0
  9 11  1  0  0  0  0
 13  2  1  0  0  0  0
 14 13  1  0  0  0  0
 15 13  1  0  0  0  0
 16 13  1  0  0  0  0
M  END
