1
 OpenBabel05122313063D

 21 21  0  0  0  0  0  0  0  0999 V2000
   -0.2891   -1.7755   -1.8265 S   0  0  0  0  0  1  0  0  0  0  0  0
    6.0480   -0.8253    0.1579 S   0  0  0  0  0  0  0  0  0  0  0  0
    3.1300   -0.6953   -0.1911 N   0  0  0  0  0  0  0  0  0  0  0  0
    1.8101   -0.7787   -0.4774 N   0  0  0  0  0  0  0  0  0  0  0  0
    1.0706   -0.1986   -0.0342 H   0  0  0  0  0  0  0  0  0  0  0  0
    2.3026   -2.4325   -2.0050 N   0  0  0  0  0  4  0  0  0  0  0  0
    3.2759   -2.3193   -1.7009 H   0  0  0  0  0  0  0  0  0  0  0  0
    2.0413   -3.0887   -2.7385 H   0  0  0  0  0  0  0  0  0  0  0  0
    3.5174    0.1899    0.6944 C   0  0  0  0  0  0  0  0  0  0  0  0
    4.9376    0.2493    0.9855 C   0  0  0  0  0  0  0  0  0  0  0  0
    7.3976   -0.1652    1.0075 C   0  0  0  0  0  0  0  0  0  0  0  0
    8.4054   -0.5526    0.8106 H   0  0  0  0  0  0  0  0  0  0  0  0
    7.0264    0.8352    1.8907 C   0  0  0  0  0  0  0  0  0  0  0  0
    7.7400    1.3778    2.5247 H   0  0  0  0  0  0  0  0  0  0  0  0
    5.6256    1.0727    1.8794 C   0  0  0  0  0  0  0  0  0  0  0  0
    5.1352    1.8247    2.5117 H   0  0  0  0  0  0  0  0  0  0  0  0
    1.3838   -1.6566   -1.4186 C   0  0  0  0  0  0  0  0  0  0  0  0
    2.5519    1.1144    1.3917 C   0  0  0  0  0  0  0  0  0  0  0  0
    1.9643    1.6964    0.6488 H   0  0  0  0  0  0  0  0  0  0  0  0
    3.0628    1.8289    2.0577 H   0  0  0  0  0  0  0  0  0  0  0  0
    1.8293    0.5360    2.0070 H   0  0  0  0  0  0  0  0  0  0  0  0
  1 17  1  0  0  0  0
  2 10  1  0  0  0  0
  2 11  1  0  0  0  0
  3  9  2  0  0  0  0
  4  3  1  0  0  0  0
  4  5  1  0  0  0  0
  6  7  1  0  0  0  0
  6 17  2  0  0  0  0
  8  6  1  0  0  0  0
  9 10  1  0  0  0  0
  9 18  1  0  0  0  0
 10 15  2  0  0  0  0
 11 13  2  0  0  0  0
 12 11  1  0  0  0  0
 13 14  1  0  0  0  0
 15 13  1  0  0  0  0
 15 16  1  0  0  0  0
 17  4  1  0  0  0  0
 18 21  1  0  0  0  0
 18 20  1  0  0  0  0
 19 18  1  0  0  0  0
M  END
