1
 OpenBabel05122313063D

 16 16  0  0  0  0  0  0  0  0999 V2000
   -2.0428   -1.1498   -0.0132 S   0  0  0  0  0  1  0  0  0  0  0  0
   -3.2517    0.0586   -0.0039 C   0  0  0  0  0  0  0  0  0  0  0  0
   -3.2435    1.5630   -0.0083 C   0  0  0  0  0  0  0  0  0  0  0  0
   -2.3804    2.4226   -0.0147 O   0  0  0  0  0  0  0  0  0  0  0  0
   -4.7883    1.5129    0.0012 C   0  0  0  0  0  0  0  0  0  0  0  0
   -5.7324    2.3010    0.0013 O   0  0  0  0  0  0  0  0  0  0  0  0
   -4.6731    0.0258    0.0075 C   0  0  0  0  0  0  0  0  0  0  0  0
   -5.6195   -0.9374    0.0176 N   0  0  0  0  0  0  0  0  0  0  0  0
   -5.3037   -2.3517    0.0418 C   0  0  0  0  0  0  0  0  0  0  0  0
   -5.7528   -2.8721   -0.8352 H   0  0  0  0  0  0  0  0  0  0  0  0
   -5.7079   -2.8334    0.9623 H   0  0  0  0  0  0  0  0  0  0  0  0
   -4.2060   -2.4932    0.0183 H   0  0  0  0  0  0  0  0  0  0  0  0
   -7.0240   -0.5692    0.0338 C   0  0  0  0  0  0  0  0  0  0  0  0
   -7.1078    0.5354    0.0185 H   0  0  0  0  0  0  0  0  0  0  0  0
   -7.5274   -0.9633    0.9468 H   0  0  0  0  0  0  0  0  0  0  0  0
   -7.5545   -0.9920   -0.8503 H   0  0  0  0  0  0  0  0  0  0  0  0
  1  2  1  0  0  0  0
  2  7  2  0  0  0  0
  3  2  1  0  0  0  0
  3  5  1  0  0  0  0
  4  3  2  0  0  0  0
  5  6  2  0  0  0  0
  5  7  1  0  0  0  0
  7  8  1  0  0  0  0
  8 13  1  0  0  0  0
  8  9  1  0  0  0  0
  9 11  1  0  0  0  0
 10  9  1  0  0  0  0
 12  9  1  0  0  0  0
 13 15  1  0  0  0  0
 14 13  1  0  0  0  0
 16 13  1  0  0  0  0
M  END
