1
 OpenBabel05122313063D

 12 12  0  0  0  0  0  0  0  0999 V2000
    1.5588   -1.7806   -0.0073 S   0  0  0  0  0  1  0  0  0  0  0  0
    2.1183    0.8697    0.0181 N   0  0  0  0  0  0  0  0  0  0  0  0
    3.9539   -0.6814   -0.0056 N   0  0  0  0  0  0  0  0  0  0  0  0
    6.1552    0.0021   -0.0457 N   0  0  0  0  0  0  0  0  0  0  0  0
    2.6429   -0.3850    0.0013 C   0  0  0  0  0  0  0  0  0  0  0  0
    4.8312    0.3383   -0.0064 C   0  0  0  0  0  0  0  0  0  0  0  0
    4.3917    1.6904    0.0077 C   0  0  0  0  0  0  0  0  0  0  0  0
    5.0908    2.5388    0.0054 H   0  0  0  0  0  0  0  0  0  0  0  0
    3.0097    1.8741    0.0215 C   0  0  0  0  0  0  0  0  0  0  0  0
    2.5889    2.8969    0.0379 H   0  0  0  0  0  0  0  0  0  0  0  0
    6.8703    0.6976    0.1510 H   0  0  0  0  0  0  0  0  0  0  0  0
    6.3799   -0.9843    0.0828 H   0  0  0  0  0  0  0  0  0  0  0  0
  1  5  1  0  0  0  0
  2  9  1  0  0  0  0
  3  5  1  0  0  0  0
  4  6  1  0  0  0  0
  4 12  1  0  0  0  0
  4 11  1  0  0  0  0
  5  2  2  0  0  0  0
  6  3  2  0  0  0  0
  6  7  1  0  0  0  0
  7  9  2  0  0  0  0
  8  7  1  0  0  0  0
  9 10  1  0  0  0  0
M  END
