1
 OpenBabel05122313063D

 19 19  0  0  1  0  0  0  0  0999 V2000
   -0.1772    1.1399   -1.6120 S   0  0  0  0  0  1  0  0  0  0  0  0
    2.7466   -0.1559   -1.2512 O   0  0  0  0  0  0  0  0  0  0  0  0
    1.3567    1.7306   -0.7683 C   0  0  0  0  0  0  0  0  0  0  0  0
    2.2359    0.6386   -0.1799 C   0  0  2  0  0  0  0  0  0  0  0  0
    3.3907    1.1855    0.6723 C   0  0  0  0  0  0  0  0  0  0  0  0
    4.2345    0.0188    1.2090 C   0  0  0  0  0  0  0  0  0  0  0  0
    4.6419   -0.9236    0.0671 C   0  0  0  0  0  0  0  0  0  0  0  0
    3.4119   -1.3082   -0.7638 C   0  0  0  0  0  0  0  0  0  0  0  0
    1.9305    2.2918   -1.5363 H   0  0  0  0  0  0  0  0  0  0  0  0
    1.0480    2.4231    0.0415 H   0  0  0  0  0  0  0  0  0  0  0  0
    1.6020   -0.0077    0.4775 H   0  0  0  0  0  0  0  0  0  0  0  0
    4.0174    1.8584    0.0440 H   0  0  0  0  0  0  0  0  0  0  0  0
    2.9792    1.7895    1.5081 H   0  0  0  0  0  0  0  0  0  0  0  0
    5.1275    0.3910    1.7558 H   0  0  0  0  0  0  0  0  0  0  0  0
    3.6235   -0.5494    1.9453 H   0  0  0  0  0  0  0  0  0  0  0  0
    5.3726   -0.4107   -0.5978 H   0  0  0  0  0  0  0  0  0  0  0  0
    5.1392   -1.8368    0.4608 H   0  0  0  0  0  0  0  0  0  0  0  0
    2.7059   -1.9223   -0.1513 H   0  0  0  0  0  0  0  0  0  0  0  0
    3.6989   -1.9085   -1.6523 H   0  0  0  0  0  0  0  0  0  0  0  0
  1  3  1  0  0  0  0
  2  8  1  0  0  0  0
  2  4  1  0  0  0  0
  3  4  1  0  0  0  0
  3 10  1  0  0  0  0
  4 11  1  1  0  0  0
  4  5  1  0  0  0  0
  5  6  1  0  0  0  0
  5 13  1  0  0  0  0
  6 14  1  0  0  0  0
  6 15  1  0  0  0  0
  7 17  1  0  0  0  0
  7  6  1  0  0  0  0
  8 18  1  0  0  0  0
  8  7  1  0  0  0  0
  9  3  1  0  0  0  0
 12  5  1  0  0  0  0
 16  7  1  0  0  0  0
 19  8  1  0  0  0  0
M  END
