1
 OpenBabel05122313063D

 45 47  0  0  0  0  0  0  0  0999 V2000
   -0.1643    1.5005   -0.4415 S   0  0  0  0  0  0  0  0  0  0  0  0
    2.1685   -1.6395   -0.9251 N   0  0  0  0  0  0  0  0  0  0  0  0
    3.4369   -1.5658   -0.4433 N   0  0  0  0  0  0  0  0  0  0  0  0
    1.0457   -1.4400    1.1929 N   0  0  0  0  0  0  0  0  0  0  0  0
    1.3429   -0.5740    2.1946 N   0  0  0  0  0  0  0  0  0  0  0  0
    2.4745    0.9817   -0.1202 N   0  0  0  0  0  0  0  0  0  0  0  0
    3.1555    0.1913   -0.0092 H   0  0  0  0  0  0  0  0  0  0  0  0
    2.3676    3.4760   -0.1601 C   0  0  0  0  0  0  0  0  0  0  0  0
    1.2764    3.4785   -0.2625 H   0  0  0  0  0  0  0  0  0  0  0  0
    3.0813    4.6814   -0.1011 C   0  0  0  0  0  0  0  0  0  0  0  0
    2.5266    5.6300   -0.1606 H   0  0  0  0  0  0  0  0  0  0  0  0
    4.4777    4.6927    0.0312 C   0  0  0  0  0  0  0  0  0  0  0  0
    5.0239    5.6466    0.0745 H   0  0  0  0  0  0  0  0  0  0  0  0
    5.1734    3.4737    0.1082 C   0  0  0  0  0  0  0  0  0  0  0  0
    6.2686    3.4652    0.2138 H   0  0  0  0  0  0  0  0  0  0  0  0
    4.4779    2.2638    0.0522 C   0  0  0  0  0  0  0  0  0  0  0  0
    5.0189    1.3065    0.1144 H   0  0  0  0  0  0  0  0  0  0  0  0
    3.0677    2.2523   -0.0816 C   0  0  0  0  0  0  0  0  0  0  0  0
    1.2109    0.5432   -0.2249 C   0  0  0  0  0  0  0  0  0  0  0  0
    1.0933   -0.9877   -0.1832 C   0  0  0  0  0  0  0  0  0  0  0  0
    0.1443   -1.2501   -0.6904 H   0  0  0  0  0  0  0  0  0  0  0  0
    0.8326   -2.4460   -2.9161 C   0  0  0  0  0  0  0  0  0  0  0  0
    0.0935   -3.0690   -2.3734 H   0  0  0  0  0  0  0  0  0  0  0  0
    1.0500   -2.9400   -3.8803 H   0  0  0  0  0  0  0  0  0  0  0  0
    0.3399   -1.4758   -3.1354 H   0  0  0  0  0  0  0  0  0  0  0  0
    2.0999   -2.2649   -2.1490 C   0  0  0  0  0  0  0  0  0  0  0  0
    3.4113   -2.6346   -2.4458 C   0  0  0  0  0  0  0  0  0  0  0  0
    3.7444   -3.1723   -3.3400 H   0  0  0  0  0  0  0  0  0  0  0  0
    4.2076   -2.1724   -1.3600 C   0  0  0  0  0  0  0  0  0  0  0  0
    5.6872   -2.2790   -1.1677 C   0  0  0  0  0  0  0  0  0  0  0  0
    6.2376   -1.7331   -1.9615 H   0  0  0  0  0  0  0  0  0  0  0  0
    6.0231   -3.3351   -1.2049 H   0  0  0  0  0  0  0  0  0  0  0  0
    5.9754   -1.8580   -0.1861 H   0  0  0  0  0  0  0  0  0  0  0  0
    1.4402   -0.6443    4.6546 C   0  0  0  0  0  0  0  0  0  0  0  0
    1.8641    0.3689    4.5240 H   0  0  0  0  0  0  0  0  0  0  0  0
    2.1220   -1.2380    5.2960 H   0  0  0  0  0  0  0  0  0  0  0  0
    0.4753   -0.5463    5.1948 H   0  0  0  0  0  0  0  0  0  0  0  0
    1.2381   -1.2890    3.3202 C   0  0  0  0  0  0  0  0  0  0  0  0
    0.8867   -2.6399    3.0276 C   0  0  0  0  0  0  0  0  0  0  0  0
    0.7328   -3.4627    3.7344 H   0  0  0  0  0  0  0  0  0  0  0  0
    0.7689   -2.7141    1.6436 C   0  0  0  0  0  0  0  0  0  0  0  0
    0.4497   -3.8604    0.7427 C   0  0  0  0  0  0  0  0  0  0  0  0
   -0.4402   -3.6640    0.1108 H   0  0  0  0  0  0  0  0  0  0  0  0
    0.2342   -4.7593    1.3488 H   0  0  0  0  0  0  0  0  0  0  0  0
    1.2964   -4.1017    0.0662 H   0  0  0  0  0  0  0  0  0  0  0  0
  1 19  2  0  0  0  0
  2  3  1  0  0  0  0
  2 20  1  0  0  0  0
  4 41  1  0  0  0  0
  4  5  1  0  0  0  0
  5 38  2  0  0  0  0
  6 18  1  0  0  0  0
  6  7  1  0  0  0  0
  8 10  2  0  0  0  0
  8 18  1  0  0  0  0
  9  8  1  0  0  0  0
 10 12  1  0  0  0  0
 11 10  1  0  0  0  0
 12 13  1  0  0  0  0
 12 14  2  0  0  0  0
 14 15  1  0  0  0  0
 16 14  1  0  0  0  0
 16 17  1  0  0  0  0
 18 16  2  0  0  0  0
 19 20  1  0  0  0  0
 19  6  1  0  0  0  0
 20  4  1  0  0  0  0
 21 20  1  0  0  0  0
 22 23  1  0  0  0  0
 22 26  1  0  0  0  0
 24 22  1  0  0  0  0
 25 22  1  0  0  0  0
 26  2  1  0  0  0  0
 27 26  2  0  0  0  0
 27 29  1  0  0  0  0
 28 27  1  0  0  0  0
 29 30  1  0  0  0  0
 29  3  2  0  0  0  0
 30 33  1  0  0  0  0
 31 30  1  0  0  0  0
 32 30  1  0  0  0  0
 34 37  1  0  0  0  0
 34 36  1  0  0  0  0
 35 34  1  0  0  0  0
 38 34  1  0  0  0  0
 39 38  1  0  0  0  0
 39 40  1  0  0  0  0
 41 39  2  0  0  0  0
 42 44  1  0  0  0  0
 42 41  1  0  0  0  0
 43 42  1  0  0  0  0
 45 42  1  0  0  0  0
M  END
