1
 OpenBabel05122313063D

  9  9  0  0  0  0  0  0  0  0999 V2000
   -1.6039   -0.7846   -1.5702 S   0  0  0  0  0  1  0  0  0  0  0  0
   -3.0429   -0.4295    1.1089 S   0  0  0  0  0  0  0  0  0  0  0  0
   -3.0769   -0.5844   -0.6441 C   0  0  0  0  0  0  0  0  0  0  0  0
   -4.3904   -0.5322   -1.1025 C   0  0  0  0  0  0  0  0  0  0  0  0
   -4.6427   -0.6016   -2.1692 H   0  0  0  0  0  0  0  0  0  0  0  0
   -5.3471   -0.3661   -0.0533 C   0  0  0  0  0  0  0  0  0  0  0  0
   -6.4313   -0.2980   -0.2248 H   0  0  0  0  0  0  0  0  0  0  0  0
   -4.7784   -0.2836    1.2025 C   0  0  0  0  0  0  0  0  0  0  0  0
   -5.2717   -0.1384    2.1712 H   0  0  0  0  0  0  0  0  0  0  0  0
  1  3  1  0  0  0  0
  2  8  1  0  0  0  0
  3  2  1  0  0  0  0
  4  3  2  0  0  0  0
  4  6  1  0  0  0  0
  5  4  1  0  0  0  0
  6  8  2  0  0  0  0
  7  6  1  0  0  0  0
  8  9  1  0  0  0  0
M  END
