1
 OpenBabel05122313063D

 17 16  0  0  0  0  0  0  0  0999 V2000
    1.8330    0.6644    1.3867 S   0  0  0  0  0  1  0  0  0  0  0  0
    1.1501   -1.0314   -0.8630 S   0  0  0  0  0  0  0  0  0  0  0  0
    3.5884   -0.9839    0.3996 O   0  0  0  0  0  0  0  0  0  0  0  0
    2.3312   -0.5602    0.2708 C   0  0  0  0  0  0  0  0  0  0  0  0
    4.2485   -2.0087   -0.4421 C   0  0  0  0  0  0  0  0  0  0  0  0
    3.5237   -3.3489   -0.2933 C   0  0  0  0  0  0  0  0  0  0  0  0
    4.3138   -1.5264   -1.8937 C   0  0  0  0  0  0  0  0  0  0  0  0
    5.6479   -2.0755    0.1721 C   0  0  0  0  0  0  0  0  0  0  0  0
    2.5020   -3.3059   -0.7145 H   0  0  0  0  0  0  0  0  0  0  0  0
    3.4568   -3.6332    0.7756 H   0  0  0  0  0  0  0  0  0  0  0  0
    4.0934   -4.1359   -0.8264 H   0  0  0  0  0  0  0  0  0  0  0  0
    4.8020   -0.5330   -1.9480 H   0  0  0  0  0  0  0  0  0  0  0  0
    3.3053   -1.4516   -2.3414 H   0  0  0  0  0  0  0  0  0  0  0  0
    4.9143   -2.2408   -2.4913 H   0  0  0  0  0  0  0  0  0  0  0  0
    5.5905   -2.3712    1.2378 H   0  0  0  0  0  0  0  0  0  0  0  0
    6.1457   -1.0880    0.1112 H   0  0  0  0  0  0  0  0  0  0  0  0
    6.2659   -2.8180   -0.3694 H   0  0  0  0  0  0  0  0  0  0  0  0
  2  4  2  0  0  0  0
  4  3  1  0  0  0  0
  4  1  1  0  0  0  0
  5  6  1  0  0  0  0
  5  8  1  0  0  0  0
  5  3  1  0  0  0  0
  6 10  1  0  0  0  0
  7  5  1  0  0  0  0
  8 15  1  0  0  0  0
  9  6  1  0  0  0  0
 11  6  1  0  0  0  0
 12  7  1  0  0  0  0
 13  7  1  0  0  0  0
 14  7  1  0  0  0  0
 16  8  1  0  0  0  0
 17  8  1  0  0  0  0
M  END
