1
q = 0.0, confidence = 0.976

 24 24  0  0  1  0  0  0  0  0999 V2000
   -0.5062   -0.2319   -1.9607 S   0  0  0  0  0  1  0  0  0  0  0  0
   -5.7084    3.2982    0.6948 C   0  0  0  0  0  0  0  0  0  0  0  0
   -6.5048    4.0627    0.7200 H   0  0  0  0  0  0  0  0  0  0  0  0
   -5.2862    3.1762    1.7135 H   0  0  0  0  0  0  0  0  0  0  0  0
   -6.1514    2.3210    0.4093 H   0  0  0  0  0  0  0  0  0  0  0  0
   -4.6531    3.7374   -0.3120 C   0  0  0  0  0  0  0  0  0  0  0  0
   -4.8007    4.7881   -0.9427 O   0  0  0  0  0  0  0  0  0  0  0  0
   -3.4778    2.8587   -0.5075 C   0  0  0  0  0  0  0  0  0  0  0  0
   -2.5351    3.1329   -1.4741 C   0  0  0  0  0  0  0  0  0  0  0  0
   -1.5153    2.2066   -1.6810 N   0  0  0  0  0  0  0  0  0  0  0  0
   -0.8138    2.3913   -2.4021 H   0  0  0  0  0  0  0  0  0  0  0  0
   -1.5767    0.8924   -1.2580 C   0  0  1  0  0  3  0  0  0  0  0  0
   -2.5258    0.6173   -0.3633 N   0  0  0  0  0  0  0  0  0  0  0  0
   -2.6317   -0.3715   -0.0514 H   0  0  0  0  0  0  0  0  0  0  0  0
   -3.2224    1.6640    0.4001 C   0  0  1  0  0  0  0  0  0  0  0  0
   -4.1844    1.2127    0.7126 H   0  0  0  0  0  0  0  0  0  0  0  0
   -2.4247    2.0469    1.6577 C   0  0  0  0  0  0  0  0  0  0  0  0
   -2.2379    1.1598    2.2946 H   0  0  0  0  0  0  0  0  0  0  0  0
   -2.9777    2.8050    2.2473 H   0  0  0  0  0  0  0  0  0  0  0  0
   -1.4429    2.4761    1.3726 H   0  0  0  0  0  0  0  0  0  0  0  0
   -2.5039    4.3271   -2.3794 C   0  0  0  0  0  0  0  0  0  0  0  0
   -3.4138    4.3592   -3.0106 H   0  0  0  0  0  0  0  0  0  0  0  0
   -1.6075    4.3084   -3.0312 H   0  0  0  0  0  0  0  0  0  0  0  0
   -2.5299    5.2670   -1.7974 H   0  0  0  0  0  0  0  0  0  0  0  0
  2  3  1  0  0  0  0
  2  4  1  0  0  0  0
  5  2  1  0  0  0  0
  6  2  1  0  0  0  0
  7  6  2  0  0  0  0
  8  6  1  0  0  0  0
  8 15  1  0  0  0  0
  9  8  2  0  0  0  0
 10  9  1  0  0  0  0
 10 12  1  0  0  0  0
 11 10  1  0  0  0  0
 12  1  1  6  0  0  0
 12 13  1  0  0  0  0
 13 14  1  0  0  0  0
 13 15  1  0  0  0  0
 15 16  1  1  0  0  0
 15 17  1  0  0  0  0
 17 19  1  0  0  0  0
 17 18  1  0  0  0  0
 20 17  1  0  0  0  0
 21 24  1  0  0  0  0
 21  9  1  0  0  0  0
 22 21  1  0  0  0  0
 23 21  1  0  0  0  0
M  END
