1
 OpenBabel05122313063D

 19 19  0  0  1  0  0  0  0  0999 V2000
   -1.8161   -0.2924   -1.6878 S   0  0  0  0  0  1  0  0  0  0  0  0
   -6.2886   -1.1477   -0.5105 O   0  0  0  0  0  0  0  0  0  0  0  0
   -3.6334    1.2980   -0.3487 N   0  0  0  0  0  0  0  0  0  0  0  0
   -1.5680    1.7049    0.2173 N   0  0  0  0  0  0  0  0  0  0  0  0
   -0.5262    1.6486    0.1818 H   0  0  0  0  0  0  0  0  0  0  0  0
   -4.8721   -0.6417    1.1941 O   0  0  0  0  0  0  0  0  0  0  0  0
   -2.3342    0.9130   -0.5819 C   0  0  2  0  0  3  0  0  0  0  0  0
   -5.2979   -0.4597    0.0710 C   0  0  0  0  0  0  0  0  0  0  0  0
   -4.7834    0.6148   -0.8935 C   0  0  0  0  0  0  0  0  0  0  0  0
   -4.4957    0.1395   -1.8525 H   0  0  0  0  0  0  0  0  0  0  0  0
   -5.5931    1.3402   -1.1091 H   0  0  0  0  0  0  0  0  0  0  0  0
   -3.6609    2.3008    0.6161 C   0  0  0  0  0  0  0  0  0  0  0  0
   -4.5994    2.7336    0.9735 H   0  0  0  0  0  0  0  0  0  0  0  0
   -2.3610    2.5626    0.9616 C   0  0  0  0  0  0  0  0  0  0  0  0
   -1.9431    3.2818    1.6712 H   0  0  0  0  0  0  0  0  0  0  0  0
   -6.8848   -2.1901    0.2859 C   0  0  0  0  0  0  0  0  0  0  0  0
   -6.1271   -2.9531    0.5517 H   0  0  0  0  0  0  0  0  0  0  0  0
   -7.6784   -2.6326   -0.3399 H   0  0  0  0  0  0  0  0  0  0  0  0
   -7.3106   -1.7704    1.2183 H   0  0  0  0  0  0  0  0  0  0  0  0
  2  8  1  0  0  0  0
  2 16  1  0  0  0  0
  3 12  1  0  0  0  0
  4 14  1  0  0  0  0
  5  4  1  0  0  0  0
  7  1  1  6  0  0  0
  7  3  1  0  0  0  0
  7  4  1  0  0  0  0
  8  6  2  0  0  0  0
  9  3  1  0  0  0  0
  9  8  1  0  0  0  0
 10  9  1  0  0  0  0
 11  9  1  0  0  0  0
 12 14  2  0  0  0  0
 12 13  1  0  0  0  0
 14 15  1  0  0  0  0
 16 17  1  0  0  0  0
 16 19  1  0  0  0  0
 18 16  1  0  0  0  0
M  END
