1
q = -1.0, confidence = 0.0

 17 16  0  0  0  0  0  0  0  0999 V2000
   -1.8281    0.7070    0.7009 S   0  0  0  0  0  1  0  0  0  0  0  0
   -5.0775    0.4154   -1.3047 O   0  0  0  0  0  0  0  0  0  0  0  0
   -5.2313   -0.5718    0.7279 O   0  0  0  0  0  0  0  0  0  0  0  0
   -2.4103    1.9559   -0.5258 C   0  0  0  0  0  0  0  0  0  0  0  0
   -1.6183    2.7102   -0.7089 H   0  0  0  0  0  0  0  0  0  0  0  0
   -2.6137    1.4387   -1.4811 H   0  0  0  0  0  0  0  0  0  0  0  0
   -3.6816    2.6581   -0.0218 C   0  0  0  0  0  0  0  0  0  0  0  0
   -3.4078    3.4685    0.6860 H   0  0  0  0  0  0  0  0  0  0  0  0
   -4.1703    3.1438   -0.8928 H   0  0  0  0  0  0  0  0  0  0  0  0
   -4.6892    1.7422    0.6932 C   0  0  0  0  0  0  0  0  0  0  0  0
   -4.3175    1.4413    1.6911 H   0  0  0  0  0  0  0  0  0  0  0  0
   -5.6443    2.2893    0.8534 H   0  0  0  0  0  0  0  0  0  0  0  0
   -5.0075    0.4864   -0.0863 C   0  0  0  0  0  0  0  0  0  0  0  0
   -5.4696   -1.8178    0.0655 C   0  0  0  0  0  0  0  0  0  0  0  0
   -5.7293   -2.5436    0.8570 H   0  0  0  0  0  0  0  0  0  0  0  0
   -4.5548   -2.1514   -0.4668 H   0  0  0  0  0  0  0  0  0  0  0  0
   -6.2942   -1.7313   -0.6703 H   0  0  0  0  0  0  0  0  0  0  0  0
  2 13  2  0  0  0  0
  4  7  1  0  0  0  0
  4  1  1  0  0  0  0
  5  4  1  0  0  0  0
  6  4  1  0  0  0  0
  7  8  1  0  0  0  0
  7 10  1  0  0  0  0
  9  7  1  0  0  0  0
 10 12  1  0  0  0  0
 10 11  1  0  0  0  0
 13 10  1  0  0  0  0
 13  3  1  0  0  0  0
 14  3  1  0  0  0  0
 14 15  1  0  0  0  0
 16 14  1  0  0  0  0
 17 14  1  0  0  0  0
M  END
