1
q = -1.0, confidence = 0.0

 15 14  0  0  0  0  0  0  0  0999 V2000
    0.0589   -0.9855   -1.7764 S   0  0  0  0  0  1  0  0  0  0  0  0
   -1.4947   -2.5502    0.3225 S   0  0  0  0  0  0  0  0  0  0  0  0
   -1.3966   -1.6989   -1.1155 C   0  0  0  0  0  0  0  0  0  0  0  0
   -2.5347   -1.6421   -1.8447 O   0  0  0  0  0  0  0  0  0  0  0  0
   -2.7386   -0.6778   -2.8917 C   0  0  0  0  0  0  0  0  0  0  0  0
   -3.8626    0.2605   -2.4958 C   0  0  0  0  0  0  0  0  0  0  0  0
   -3.4521    0.9964   -1.3745 O   0  0  0  0  0  0  0  0  0  0  0  0
   -4.3311    2.0334   -1.0141 C   0  0  0  0  0  0  0  0  0  0  0  0
   -1.7986   -0.1122   -3.0585 H   0  0  0  0  0  0  0  0  0  0  0  0
   -3.0062   -1.2358   -3.8127 H   0  0  0  0  0  0  0  0  0  0  0  0
   -4.7993   -0.3165   -2.2841 H   0  0  0  0  0  0  0  0  0  0  0  0
   -4.0803    0.9254   -3.3724 H   0  0  0  0  0  0  0  0  0  0  0  0
   -3.9074    2.5183   -0.1163 H   0  0  0  0  0  0  0  0  0  0  0  0
   -5.3498    1.6547   -0.7593 H   0  0  0  0  0  0  0  0  0  0  0  0
   -4.4360    2.7887   -1.8325 H   0  0  0  0  0  0  0  0  0  0  0  0
  1  3  1  0  0  0  0
  3  2  2  0  0  0  0
  4  3  1  0  0  0  0
  5  6  1  0  0  0  0
  5  4  1  0  0  0  0
  6 11  1  0  0  0  0
  6  7  1  0  0  0  0
  7  8  1  0  0  0  0
  8 14  1  0  0  0  0
  8 13  1  0  0  0  0
  9  5  1  0  0  0  0
 10  5  1  0  0  0  0
 12  6  1  0  0  0  0
 15  8  1  0  0  0  0
M  END
