1
q = -1.0, confidence = 0.012

 38 38  0  0  0  0  0  0  0  0999 V2000
    1.0233   -1.8288    0.3161 S   0  0  0  0  0  1  0  0  0  0  0  0
    0.0118   -0.5560    1.0225 C   0  0  0  0  0  0  0  0  0  0  0  0
    0.5262    1.0624    1.1139 S   0  0  0  0  0  0  0  0  0  0  0  0
   -1.2059   -0.9510    1.5033 N   0  0  0  0  0  0  0  0  0  0  0  0
   -2.1160    0.0287    2.1003 C   0  0  0  0  0  0  0  0  0  0  0  0
   -1.5186    0.7244    2.7252 H   0  0  0  0  0  0  0  0  0  0  0  0
   -2.8272   -0.5178    2.7504 H   0  0  0  0  0  0  0  0  0  0  0  0
   -2.9138    0.8569    1.0896 C   0  0  0  0  0  0  0  0  0  0  0  0
   -2.2145    1.4836    0.4929 H   0  0  0  0  0  0  0  0  0  0  0  0
   -3.4754    0.2012    0.3910 H   0  0  0  0  0  0  0  0  0  0  0  0
   -3.7861    1.6720    1.8715 O   0  0  0  0  0  0  0  0  0  0  0  0
   -4.1585    2.9039    1.3036 C   0  0  0  0  0  0  0  0  0  0  0  0
   -3.2759    3.4344    0.8681 H   0  0  0  0  0  0  0  0  0  0  0  0
   -4.5559    3.5268    2.1340 H   0  0  0  0  0  0  0  0  0  0  0  0
   -5.2371    2.7947    0.2333 C   0  0  0  0  0  0  0  0  0  0  0  0
   -6.0388    2.1212    0.6207 H   0  0  0  0  0  0  0  0  0  0  0  0
   -5.7019    3.7997    0.0576 H   0  0  0  0  0  0  0  0  0  0  0  0
   -4.6624    2.2984   -0.9598 O   0  0  0  0  0  0  0  0  0  0  0  0
   -5.5855    1.8264   -1.9158 C   0  0  0  0  0  0  0  0  0  0  0  0
   -5.0341    1.7701   -2.8775 H   0  0  0  0  0  0  0  0  0  0  0  0
   -6.4386    2.5373   -2.0518 H   0  0  0  0  0  0  0  0  0  0  0  0
   -6.1453    0.4429   -1.6033 C   0  0  0  0  0  0  0  0  0  0  0  0
   -6.6750    0.4412   -0.6173 H   0  0  0  0  0  0  0  0  0  0  0  0
   -6.9145    0.1833   -2.3764 H   0  0  0  0  0  0  0  0  0  0  0  0
   -5.0853   -0.4832   -1.5996 O   0  0  0  0  0  0  0  0  0  0  0  0
   -5.4660   -1.7911   -1.2412 C   0  0  0  0  0  0  0  0  0  0  0  0
   -6.1283   -2.2480   -2.0202 H   0  0  0  0  0  0  0  0  0  0  0  0
   -6.0342   -1.7955   -0.2779 H   0  0  0  0  0  0  0  0  0  0  0  0
   -4.2207   -2.6388   -1.0849 C   0  0  0  0  0  0  0  0  0  0  0  0
   -4.5085   -3.7207   -1.0604 H   0  0  0  0  0  0  0  0  0  0  0  0
   -3.5686   -2.4889   -1.9800 H   0  0  0  0  0  0  0  0  0  0  0  0
   -3.5494   -2.2675    0.0979 O   0  0  0  0  0  0  0  0  0  0  0  0
   -2.2663   -2.8445    0.2189 C   0  0  0  0  0  0  0  0  0  0  0  0
   -1.6196   -2.5854   -0.6536 H   0  0  0  0  0  0  0  0  0  0  0  0
   -2.3340   -3.9621    0.2569 H   0  0  0  0  0  0  0  0  0  0  0  0
   -1.6080   -2.3588    1.5037 C   0  0  0  0  0  0  0  0  0  0  0  0
   -2.3144   -2.5104    2.3446 H   0  0  0  0  0  0  0  0  0  0  0  0
   -0.7078   -2.9798    1.6904 H   0  0  0  0  0  0  0  0  0  0  0  0
  1  2  1  0  0  0  0
  2  3  2  0  0  0  0
  2  4  1  0  0  0  0
  4 36  1  0  0  0  0
  4  5  1  0  0  0  0
  5  6  1  0  0  0  0
  5  7  1  0  0  0  0
  8 11  1  0  0  0  0
  8  5  1  0  0  0  0
  9  8  1  0  0  0  0
 10  8  1  0  0  0  0
 12 11  1  0  0  0  0
 12 14  1  0  0  0  0
 13 12  1  0  0  0  0
 15 16  1  0  0  0  0
 15 12  1  0  0  0  0
 17 15  1  0  0  0  0
 18 15  1  0  0  0  0
 19 22  1  0  0  0  0
 19 18  1  0  0  0  0
 20 19  1  0  0  0  0
 21 19  1  0  0  0  0
 22 25  1  0  0  0  0
 22 23  1  0  0  0  0
 24 22  1  0  0  0  0
 25 26  1  0  0  0  0
 26 29  1  0  0  0  0
 26 28  1  0  0  0  0
 27 26  1  0  0  0  0
 29 30  1  0  0  0  0
 29 32  1  0  0  0  0
 31 29  1  0  0  0  0
 32 33  1  0  0  0  0
 33 35  1  0  0  0  0
 33 36  1  0  0  0  0
 34 33  1  0  0  0  0
 36 38  1  0  0  0  0
 36 37  1  0  0  0  0
M  END
