1
q = -1.0, confidence = 0.028

 47 49  0  0  0  0  0  0  0  0999 V2000
    1.4082   -0.1640    1.0479 S   0  0  0  0  0  1  0  0  0  0  0  0
   -1.6702   -0.0880   -0.0704 P   0  0  0  0  0  0  0  0  0  0  0  0
    3.7017   -2.1587   -0.2992 Si  0  0  0  0  0  0  0  0  0  0  0  0
   -1.4226    1.4179   -0.2571 O   0  0  0  0  0  0  0  0  0  0  0  0
    0.9221   -1.1986   -0.3296 C   0  0  0  0  0  0  0  0  0  0  0  0
   -0.4179   -1.1970   -0.8156 C   0  0  0  0  0  0  0  0  0  0  0  0
   -0.7791   -2.0314   -1.8934 C   0  0  0  0  0  0  0  0  0  0  0  0
   -1.8097   -2.0103   -2.2770 H   0  0  0  0  0  0  0  0  0  0  0  0
    0.1641   -2.8911   -2.4669 C   0  0  0  0  0  0  0  0  0  0  0  0
   -0.1218   -3.5433   -3.3058 H   0  0  0  0  0  0  0  0  0  0  0  0
    1.4722   -2.9171   -1.9601 C   0  0  0  0  0  0  0  0  0  0  0  0
    2.2008   -3.6049   -2.4161 H   0  0  0  0  0  0  0  0  0  0  0  0
    1.8842   -2.0809   -0.8997 C   0  0  0  0  0  0  0  0  0  0  0  0
    3.8045   -2.7349    1.5008 C   0  0  0  0  0  0  0  0  0  0  0  0
    4.8664   -2.8313    1.8095 H   0  0  0  0  0  0  0  0  0  0  0  0
    3.3228   -3.7270    1.6208 H   0  0  0  0  0  0  0  0  0  0  0  0
    3.3026   -2.0195    2.1803 H   0  0  0  0  0  0  0  0  0  0  0  0
    4.5927   -3.4560   -1.3640 C   0  0  0  0  0  0  0  0  0  0  0  0
    4.5979   -3.1848   -2.4399 H   0  0  0  0  0  0  0  0  0  0  0  0
    4.1415   -4.4645   -1.2632 H   0  0  0  0  0  0  0  0  0  0  0  0
    5.6503   -3.5325   -1.0364 H   0  0  0  0  0  0  0  0  0  0  0  0
    4.5889   -0.5066   -0.5596 C   0  0  0  0  0  0  0  0  0  0  0  0
    4.4656   -0.1561   -1.6049 H   0  0  0  0  0  0  0  0  0  0  0  0
    5.6752   -0.6249   -0.3645 H   0  0  0  0  0  0  0  0  0  0  0  0
    4.1883    0.2705    0.1185 H   0  0  0  0  0  0  0  0  0  0  0  0
   -1.8529   -0.5873    1.6757 C   0  0  0  0  0  0  0  0  0  0  0  0
   -2.3057    0.3907    2.5806 C   0  0  0  0  0  0  0  0  0  0  0  0
   -2.4745    1.4165    2.2184 H   0  0  0  0  0  0  0  0  0  0  0  0
   -2.5135    0.0517    3.9253 C   0  0  0  0  0  0  0  0  0  0  0  0
   -2.8625    0.8167    4.6356 H   0  0  0  0  0  0  0  0  0  0  0  0
   -2.2703   -1.2594    4.3667 C   0  0  0  0  0  0  0  0  0  0  0  0
   -2.4302   -1.5226    5.4234 H   0  0  0  0  0  0  0  0  0  0  0  0
   -1.8143   -2.2336    3.4630 C   0  0  0  0  0  0  0  0  0  0  0  0
   -1.6104   -3.2573    3.8119 H   0  0  0  0  0  0  0  0  0  0  0  0
   -1.6036   -1.9010    2.1172 C   0  0  0  0  0  0  0  0  0  0  0  0
   -1.2181   -2.6546    1.4127 H   0  0  0  0  0  0  0  0  0  0  0  0
   -3.2666   -0.5274   -0.8573 C   0  0  0  0  0  0  0  0  0  0  0  0
   -3.9749   -1.7054   -0.5477 C   0  0  0  0  0  0  0  0  0  0  0  0
   -3.5802   -2.4063    0.2039 H   0  0  0  0  0  0  0  0  0  0  0  0
   -5.1905   -1.9792   -1.1911 C   0  0  0  0  0  0  0  0  0  0  0  0
   -5.7437   -2.8989   -0.9474 H   0  0  0  0  0  0  0  0  0  0  0  0
   -5.7050   -1.0774   -2.1381 C   0  0  0  0  0  0  0  0  0  0  0  0
   -6.6609   -1.2936   -2.6393 H   0  0  0  0  0  0  0  0  0  0  0  0
   -5.0058    0.1025   -2.4383 C   0  0  0  0  0  0  0  0  0  0  0  0
   -5.4132    0.8136   -3.1732 H   0  0  0  0  0  0  0  0  0  0  0  0
   -3.7886    0.3809   -1.7981 C   0  0  0  0  0  0  0  0  0  0  0  0
   -3.2288    1.3057   -2.0050 H   0  0  0  0  0  0  0  0  0  0  0  0
  2 26  1  0  0  0  0
  3 14  1  0  0  0  0
  4  2  2  0  0  0  0
  5  1  1  0  0  0  0
  6  5  1  0  0  0  0
  6  2  1  0  0  0  0
  7  6  2  0  0  0  0
  8  7  1  0  0  0  0
  9 11  2  0  0  0  0
  9  7  1  0  0  0  0
 10  9  1  0  0  0  0
 11 13  1  0  0  0  0
 12 11  1  0  0  0  0
 13  5  2  0  0  0  0
 13  3  1  0  0  0  0
 14 16  1  0  0  0  0
 14 15  1  0  0  0  0
 14 17  1  0  0  0  0
 18 20  1  0  0  0  0
 18 21  1  0  0  0  0
 18  3  1  0  0  0  0
 19 18  1  0  0  0  0
 22 24  1  0  0  0  0
 22  3  1  0  0  0  0
 22 25  1  0  0  0  0
 23 22  1  0  0  0  0
 26 35  2  0  0  0  0
 26 27  1  0  0  0  0
 27 29  2  0  0  0  0
 28 27  1  0  0  0  0
 29 31  1  0  0  0  0
 29 30  1  0  0  0  0
 31 32  1  0  0  0  0
 33 34  1  0  0  0  0
 33 31  2  0  0  0  0
 35 33  1  0  0  0  0
 36 35  1  0  0  0  0
 37 38  1  0  0  0  0
 37  2  1  0  0  0  0
 38 39  1  0  0  0  0
 40 41  1  0  0  0  0
 40 38  2  0  0  0  0
 42 40  1  0  0  0  0
 43 42  1  0  0  0  0
 44 42  2  0  0  0  0
 44 46  1  0  0  0  0
 45 44  1  0  0  0  0
 46 37  2  0  0  0  0
 47 46  1  0  0  0  0
M  END
