1
q = -1.0, confidence = 0.0

 18 18  0  0  0  0  0  0  0  0999 V2000
    1.0852   -0.0643    2.2778 S   0  0  0  0  0  1  0  0  0  0  0  0
   -0.6308   -0.1742    1.9046 C   0  0  0  0  0  0  0  0  0  0  0  0
   -1.4338    0.9918    1.7901 C   0  0  0  0  0  0  0  0  0  0  0  0
   -1.2548   -1.4296    1.6615 C   0  0  0  0  0  0  0  0  0  0  0  0
   -2.5727   -1.5035    1.2196 C   0  0  0  0  0  0  0  0  0  0  0  0
   -3.3361   -0.3275    1.0281 C   0  0  0  0  0  0  0  0  0  0  0  0
   -2.7628    0.9188    1.3620 C   0  0  0  0  0  0  0  0  0  0  0  0
   -5.3428    0.7310    0.3489 O   0  0  0  0  0  0  0  0  0  0  0  0
   -4.6773   -0.4600    0.4141 C   0  0  0  0  0  0  0  0  0  0  0  0
   -5.1507   -1.4984   -0.0292 O   0  0  0  0  0  0  0  0  0  0  0  0
   -6.6381    0.6679   -0.2487 C   0  0  0  0  0  0  0  0  0  0  0  0
   -0.6549   -2.3422    1.7938 H   0  0  0  0  0  0  0  0  0  0  0  0
   -3.0404   -2.4698    0.9789 H   0  0  0  0  0  0  0  0  0  0  0  0
   -3.3599    1.8340    1.2407 H   0  0  0  0  0  0  0  0  0  0  0  0
   -0.9707    1.9657    2.0093 H   0  0  0  0  0  0  0  0  0  0  0  0
   -6.5807    0.2949   -1.2923 H   0  0  0  0  0  0  0  0  0  0  0  0
   -7.3055   -0.0137    0.3172 H   0  0  0  0  0  0  0  0  0  0  0  0
   -7.0380    1.6979   -0.2297 H   0  0  0  0  0  0  0  0  0  0  0  0
  2  1  1  0  0  0  0
  3  2  1  0  0  0  0
  3 15  1  0  0  0  0
  4 12  1  0  0  0  0
  4  2  2  0  0  0  0
  5  4  1  0  0  0  0
  6  5  2  0  0  0  0
  6  7  1  0  0  0  0
  7  3  2  0  0  0  0
  8  9  1  0  0  0  0
  9  6  1  0  0  0  0
 10  9  2  0  0  0  0
 11 18  1  0  0  0  0
 11 17  1  0  0  0  0
 11  8  1  0  0  0  0
 13  5  1  0  0  0  0
 14  7  1  0  0  0  0
 16 11  1  0  0  0  0
M  END
