1
q = 0.0, confidence = 0.972

 10 10  0  0  1  0  0  0  0  0999 V2000
    3.9843   -0.7353   -0.4040 S   0  0  0  0  0  0  0  0  0  0  0  0
    4.9363   -0.3228    1.1256 C   0  0  0  0  0  0  0  0  0  0  0  0
    4.3624   -0.3923    2.0616 H   0  0  0  0  0  0  0  0  0  0  0  0
    5.9312   -0.7994    1.1391 H   0  0  0  0  0  0  0  0  0  0  0  0
    4.7381    0.8483    0.2370 C   0  0  1  0  0  0  0  0  0  0  0  0
    3.9575    1.5580    0.5562 H   0  0  0  0  0  0  0  0  0  0  0  0
    5.8611    1.4381   -0.5741 C   0  0  0  0  0  0  0  0  0  0  0  0
    6.4267    2.1650    0.0469 H   0  0  0  0  0  0  0  0  0  0  0  0
    5.4587    1.9782   -1.4523 H   0  0  0  0  0  0  0  0  0  0  0  0
    6.5625    0.6563   -0.9261 H   0  0  0  0  0  0  0  0  0  0  0  0
  1  5  1  0  0  0  0
  1  2  1  0  0  0  0
  2  4  1  0  0  0  0
  2  3  1  0  0  0  0
  5  6  1  1  0  0  0
  5  2  1  0  0  0  0
  7  8  1  0  0  0  0
  7  5  1  0  0  0  0
  9  7  1  0  0  0  0
 10  7  1  0  0  0  0
M  END
