2
q = -1.0, confidence = 0.0

 12 12  0  0  0  0  0  0  0  0999 V2000
   -3.6615   -2.5279    2.1079 Cl  0  0  0  0  0  0  0  0  0  0  0  0
   -1.8595    1.3525   -1.4133 S   0  0  0  0  0  1  0  0  0  0  0  0
   -3.0575    0.1967   -0.8330 C   0  0  0  0  0  0  0  0  0  0  0  0
   -2.8864   -0.6299    0.3077 C   0  0  0  0  0  0  0  0  0  0  0  0
   -3.9011   -1.5152    0.6865 C   0  0  0  0  0  0  0  0  0  0  0  0
   -5.1074   -1.6286   -0.0247 C   0  0  0  0  0  0  0  0  0  0  0  0
   -5.2740   -0.8096   -1.1552 C   0  0  0  0  0  0  0  0  0  0  0  0
   -4.2763    0.0850   -1.5563 C   0  0  0  0  0  0  0  0  0  0  0  0
   -1.9537   -0.5682    0.8871 H   0  0  0  0  0  0  0  0  0  0  0  0
   -5.8816   -2.3357    0.3026 H   0  0  0  0  0  0  0  0  0  0  0  0
   -6.2090   -0.8752   -1.7353 H   0  0  0  0  0  0  0  0  0  0  0  0
   -4.4220    0.7194   -2.4439 H   0  0  0  0  0  0  0  0  0  0  0  0
  2  3  1  0  0  0  0
  3  4  1  0  0  0  0
  4  5  2  0  0  0  0
  4  9  1  0  0  0  0
  5  1  1  0  0  0  0
  6 10  1  0  0  0  0
  6  5  1  0  0  0  0
  7  6  2  0  0  0  0
  8  7  1  0  0  0  0
  8  3  2  0  0  0  0
 11  7  1  0  0  0  0
 12  8  1  0  0  0  0
M  END
