1
q = 0.0, confidence = 0.996

 21 23  0  0  0  0  0  0  0  0999 V2000
    0.7686    0.0285   -1.3522 S   0  0  0  0  0  0  0  0  0  0  0  0
    1.8133   -1.2710   -0.7121 C   0  0  0  0  0  0  0  0  0  0  0  0
    1.5659   -2.6438   -0.8260 C   0  0  0  0  0  0  0  0  0  0  0  0
    2.4895   -3.5277   -0.2496 C   0  0  0  0  0  0  0  0  0  0  0  0
    3.6317   -3.0416    0.4178 C   0  0  0  0  0  0  0  0  0  0  0  0
    3.8689   -1.6661    0.5206 C   0  0  0  0  0  0  0  0  0  0  0  0
    2.9545   -0.7557   -0.0464 C   0  0  0  0  0  0  0  0  0  0  0  0
    2.9916    0.7043   -0.0483 C   0  0  0  0  0  0  0  0  0  0  0  0
    3.9557    1.5705    0.5051 C   0  0  0  0  0  0  0  0  0  0  0  0
    3.7910    2.9560    0.3891 C   0  0  0  0  0  0  0  0  0  0  0  0
    2.6738    3.4960   -0.2791 C   0  0  0  0  0  0  0  0  0  0  0  0
    1.7022    2.6561   -0.8422 C   0  0  0  0  0  0  0  0  0  0  0  0
    1.8747    1.2738   -0.7114 C   0  0  0  0  0  0  0  0  0  0  0  0
    0.6698   -3.0201   -1.3392 H   0  0  0  0  0  0  0  0  0  0  0  0
    2.3148   -4.6114   -0.3197 H   0  0  0  0  0  0  0  0  0  0  0  0
    4.3430   -3.7512    0.8656 H   0  0  0  0  0  0  0  0  0  0  0  0
    4.7612   -1.2935    1.0453 H   0  0  0  0  0  0  0  0  0  0  0  0
    4.8315    1.1567    1.0269 H   0  0  0  0  0  0  0  0  0  0  0  0
    4.5419    3.6312    0.8252 H   0  0  0  0  0  0  0  0  0  0  0  0
    2.5574    4.5867   -0.3602 H   0  0  0  0  0  0  0  0  0  0  0  0
    0.8250    3.0708   -1.3593 H   0  0  0  0  0  0  0  0  0  0  0  0
  1  2  1  0  0  0  0
  1 13  1  0  0  0  0
  2  7  1  0  0  0  0
  3  2  2  0  0  0  0
  3  4  1  0  0  0  0
  4  5  2  0  0  0  0
  5  6  1  0  0  0  0
  5 16  1  0  0  0  0
  6 17  1  0  0  0  0
  7  6  2  0  0  0  0
  8  7  1  0  0  0  0
  8  9  1  0  0  0  0
  9 18  1  0  0  0  0
 10  9  2  0  0  0  0
 10 19  1  0  0  0  0
 11 10  1  0  0  0  0
 12 13  1  0  0  0  0
 12 11  2  0  0  0  0
 13  8  2  0  0  0  0
 14  3  1  0  0  0  0
 15  4  1  0  0  0  0
 20 11  1  0  0  0  0
 21 12  1  0  0  0  0
M  END
