1
q = -1.0, confidence = 0.0

 27 29  0  0  0  0  0  0  0  0999 V2000
    1.6554   -0.9449   -2.2607 S   0  0  0  0  0  1  0  0  0  0  0  0
   -0.6639   -2.9714   -2.7848 B   0  0  2  0  0  0  0  0  0  0  0  0
    0.9475   -2.4923   -3.3146 B   0  0  2  0  0  0  0  0  0  0  0  0
   -0.3393   -1.2509   -2.7334 B   0  0  1  0  0  0  0  0  0  0  0  0
   -1.2920   -2.0133   -1.4265 B   0  0  2  0  0  0  0  0  0  0  0  0
   -0.5984   -3.6149   -1.1082 B   0  0  0  0  0  0  0  0  0  0  0  0
    0.7789   -3.8703   -2.2168 B   0  0  2  0  0  0  0  0  0  0  0  0
   -0.2209   -2.3422    0.0753 B   0  0  0  0  0  2  0  0  0  0  0  0
    1.1075   -3.5286   -0.5262 B   0  0  0  0  0  0  0  0  0  0  0  0
    2.1022   -2.7971   -1.9081 B   0  0  2  0  0  0  0  0  0  0  0  0
   -0.6042   -2.3631    1.4337 O   0  0  0  0  0  0  0  0  0  0  0  0
   -0.3045   -3.4698    2.2822 C   0  0  0  0  0  0  0  0  0  0  0  0
   -0.9481   -3.2465    3.6404 C   0  0  0  0  0  0  0  0  0  0  0  0
    0.7989   -3.5815    2.3856 H   0  0  0  0  0  0  0  0  0  0  0  0
   -0.6717   -4.4109    1.8164 H   0  0  0  0  0  0  0  0  0  0  0  0
   -0.7300   -4.0951    4.3190 H   0  0  0  0  0  0  0  0  0  0  0  0
   -2.0494   -3.1531    3.5500 H   0  0  0  0  0  0  0  0  0  0  0  0
   -0.5656   -2.3206    4.1178 H   0  0  0  0  0  0  0  0  0  0  0  0
   -1.4156   -3.4286   -3.6174 H   0  0  0  0  0  0  0  0  0  0  0  0
    1.3340   -2.4961   -4.4592 H   0  0  0  0  0  0  0  0  0  0  0  0
   -0.7085   -0.4238   -3.5431 H   0  0  0  0  0  0  0  0  0  0  0  0
   -2.4927   -1.8836   -1.3672 H   0  0  0  0  0  0  0  0  0  0  0  0
   -1.3025   -4.5382   -0.7527 H   0  0  0  0  0  0  0  0  0  0  0  0
    1.0630   -4.9928   -2.5756 H   0  0  0  0  0  0  0  0  0  0  0  0
    1.5623   -4.3941    0.1902 H   0  0  0  0  0  0  0  0  0  0  0  0
    3.2803   -3.0222   -2.0625 H   0  0  0  0  0  0  0  0  0  0  0  0
    1.3001   -2.3884   -0.0284 H   0  0  0  0  0  0  0  0  0  0  0  0
  2 19  1  6  0  0  0
  2  4  1  0  0  0  0
  2  5  1  0  0  0  0
  3 20  1  6  0  0  0
  3  2  1  0  0  0  0
  3  7  1  0  0  0  0
  3 10  1  0  0  0  0
  4 21  1  6  0  0  0
  4  1  1  0  0  0  0
  4  5  1  0  0  0  0
  5 22  1  1  0  0  0
  5  6  1  0  0  0  0
  6 23  1  0  0  0  0
  6  8  1  0  0  0  0
  7 24  1  6  0  0  0
  7 10  1  0  0  0  0
  7  9  1  0  0  0  0
  8 11  1  0  0  0  0
  9 27  1  0  0  0  0
  9 25  1  0  0  0  0
 10 26  1  6  0  0  0
 10  9  1  0  0  0  0
 11 12  1  0  0  0  0
 12 14  1  0  0  0  0
 12 13  1  0  0  0  0
 13 18  1  0  0  0  0
 13 16  1  0  0  0  0
 15 12  1  0  0  0  0
 17 13  1  0  0  0  0
M  END
