1
q = 0.0, confidence = 1.0

 31 32  0  0  0  0  0  0  0  0999 V2000
    1.8482    0.8771   -0.0136 S   0  0  0  0  0  1  0  0  0  0  0  0
    3.2031   -1.4732   -0.0312 N   0  0  0  0  0  4  0  0  0  0  0  0
    4.0985   -1.9682   -0.0150 H   0  0  0  0  0  0  0  0  0  0  0  0
    2.2918   -1.9706   -0.0342 H   0  0  0  0  0  0  0  0  0  0  0  0
    4.4500    0.4728   -0.0012 N   0  0  0  0  0  0  0  0  0  0  0  0
    4.4535    1.5045    0.0198 H   0  0  0  0  0  0  0  0  0  0  0  0
    5.5799   -0.2504   -0.0276 N   0  0  0  0  0  0  0  0  0  0  0  0
    3.2170   -0.1427   -0.0176 C   0  0  0  0  0  0  0  0  0  0  0  0
    6.7409    0.3534    0.0231 C   0  0  0  0  0  0  0  0  0  0  0  0
    7.9564   -0.4805   -0.0867 C   0  0  0  0  0  0  0  0  0  0  0  0
    9.2215    0.0341    0.2821 C   0  0  0  0  0  0  0  0  0  0  0  0
    9.2997    1.0666    0.6528 H   0  0  0  0  0  0  0  0  0  0  0  0
   10.3709   -0.7636    0.1950 C   0  0  0  0  0  0  0  0  0  0  0  0
   11.3455   -0.3471    0.4916 H   0  0  0  0  0  0  0  0  0  0  0  0
   10.2810   -2.0869   -0.2626 C   0  0  0  0  0  0  0  0  0  0  0  0
   11.1843   -2.7114   -0.3342 H   0  0  0  0  0  0  0  0  0  0  0  0
    9.0285   -2.6088   -0.6340 C   0  0  0  0  0  0  0  0  0  0  0  0
    8.9506   -3.6434   -1.0015 H   0  0  0  0  0  0  0  0  0  0  0  0
    7.8800   -1.8166   -0.5497 C   0  0  0  0  0  0  0  0  0  0  0  0
    6.9010   -2.2140   -0.8521 H   0  0  0  0  0  0  0  0  0  0  0  0
    6.8672    1.8361    0.1667 C   0  0  0  0  0  0  0  0  0  0  0  0
    6.3479    2.4973    1.3028 C   0  0  0  0  0  0  0  0  0  0  0  0
    5.8772    1.9093    2.1060 H   0  0  0  0  0  0  0  0  0  0  0  0
    6.4469    3.8917    1.4210 C   0  0  0  0  0  0  0  0  0  0  0  0
    6.0444    4.3929    2.3141 H   0  0  0  0  0  0  0  0  0  0  0  0
    7.0610    4.6431    0.4069 C   0  0  0  0  0  0  0  0  0  0  0  0
    7.1360    5.7370    0.4998 H   0  0  0  0  0  0  0  0  0  0  0  0
    7.5805    3.9951   -0.7255 C   0  0  0  0  0  0  0  0  0  0  0  0
    8.0622    4.5803   -1.5234 H   0  0  0  0  0  0  0  0  0  0  0  0
    7.4869    2.6016   -0.8454 C   0  0  0  0  0  0  0  0  0  0  0  0
    7.8959    2.0916   -1.7306 H   0  0  0  0  0  0  0  0  0  0  0  0
  2  8  2  0  0  0  0
  2  3  1  0  0  0  0
  4  2  1  0  0  0  0
  5  6  1  0  0  0  0
  7  5  1  0  0  0  0
  7  9  2  0  0  0  0
  8  1  1  0  0  0  0
  8  5  1  0  0  0  0
  9 21  1  0  0  0  0
 10  9  1  0  0  0  0
 10 11  1  0  0  0  0
 11 12  1  0  0  0  0
 13 11  2  0  0  0  0
 13 14  1  0  0  0  0
 15 13  1  0  0  0  0
 16 15  1  0  0  0  0
 17 19  1  0  0  0  0
 17 15  2  0  0  0  0
 18 17  1  0  0  0  0
 19 10  2  0  0  0  0
 20 19  1  0  0  0  0
 21 22  1  0  0  0  0
 22 24  2  0  0  0  0
 22 23  1  0  0  0  0
 24 25  1  0  0  0  0
 26 27  1  0  0  0  0
 26 24  1  0  0  0  0
 28 26  2  0  0  0  0
 29 28  1  0  0  0  0
 30 28  1  0  0  0  0
 30 21  2  0  0  0  0
 31 30  1  0  0  0  0
M  END
