3
q = -1.0, confidence = 0.02

 37 38  0  0  0  0  0  0  0  0999 V2000
   -7.4288    1.5388   -0.0510 S   0  0  0  0  0  0  0  0  0  0  0  0
   -6.7817    2.7672   -0.0742 H   0  0  0  0  0  0  0  0  0  0  0  0
    0.2007   -2.9820    0.0149 S   0  0  0  0  0  1  0  0  0  0  0  0
   -5.2681    3.6191   -0.0722 O   0  0  0  0  0  0  0  0  0  0  0  0
   -3.0743    3.1368    0.0406 O   0  0  0  0  0  0  0  0  0  0  0  0
   -6.6544   -2.9587    0.0107 O   0  0  0  0  0  0  0  0  0  0  0  0
   -8.0459   -1.1752   -0.0105 O   0  0  0  0  0  0  0  0  0  0  0  0
   -4.5953    1.3097   -0.0066 C   0  0  0  0  0  0  0  0  0  0  0  0
   -5.9019    0.6978   -0.0187 C   0  0  0  0  0  0  0  0  0  0  0  0
   -5.7453   -0.7244   -0.0000 C   0  0  0  0  0  0  0  0  0  0  0  0
   -3.7900   -2.3184    0.0280 C   0  0  0  0  0  0  0  0  0  0  0  0
   -4.5493   -3.1159    0.0314 H   0  0  0  0  0  0  0  0  0  0  0  0
   -2.4631   -2.7414    0.0312 C   0  0  0  0  0  0  0  0  0  0  0  0
   -2.3204   -3.8346    0.0366 H   0  0  0  0  0  0  0  0  0  0  0  0
   -1.2596   -1.9829    0.0248 C   0  0  0  0  0  0  0  0  0  0  0  0
   -1.1959   -0.5654    0.0248 C   0  0  0  0  0  0  0  0  0  0  0  0
   -0.1744   -0.1487    0.0244 H   0  0  0  0  0  0  0  0  0  0  0  0
   -2.2117    0.3920    0.0206 C   0  0  0  0  0  0  0  0  0  0  0  0
   -1.8569    1.4308    0.0192 H   0  0  0  0  0  0  0  0  0  0  0  0
   -3.6166    0.2521    0.0127 C   0  0  0  0  0  0  0  0  0  0  0  0
   -4.3432   -1.0167    0.0154 C   0  0  0  0  0  0  0  0  0  0  0  0
   -4.3825    2.7535   -0.0181 C   0  0  0  0  0  0  0  0  0  0  0  0
   -2.8316    4.5542    0.0180 C   0  0  0  0  0  0  0  0  0  0  0  0
   -3.4411    5.0419    0.8075 H   0  0  0  0  0  0  0  0  0  0  0  0
   -3.1830    4.9688   -0.9514 H   0  0  0  0  0  0  0  0  0  0  0  0
   -1.3460    4.7708    0.2265 C   0  0  0  0  0  0  0  0  0  0  0  0
   -1.0213    4.3557    1.2012 H   0  0  0  0  0  0  0  0  0  0  0  0
   -1.1133    5.8544    0.2155 H   0  0  0  0  0  0  0  0  0  0  0  0
   -0.7485    4.2805   -0.5678 H   0  0  0  0  0  0  0  0  0  0  0  0
   -6.8071   -1.7397    0.0007 C   0  0  0  0  0  0  0  0  0  0  0  0
   -9.1602   -2.0810   -0.0128 C   0  0  0  0  0  0  0  0  0  0  0  0
   -9.0973   -2.7371    0.8821 H   0  0  0  0  0  0  0  0  0  0  0  0
   -9.0834   -2.7497   -0.8972 H   0  0  0  0  0  0  0  0  0  0  0  0
  -10.4281   -1.2503   -0.0286 C   0  0  0  0  0  0  0  0  0  0  0  0
  -10.4664   -0.6062   -0.9294 H   0  0  0  0  0  0  0  0  0  0  0  0
  -10.4805   -0.5935    0.8622 H   0  0  0  0  0  0  0  0  0  0  0  0
  -11.3181   -1.9104   -0.0309 H   0  0  0  0  0  0  0  0  0  0  0  0
  1  9  1  0  0  0  0
  2  1  1  0  0  0  0
  3 15  1  0  0  0  0
  4 22  2  0  0  0  0
  7 30  1  0  0  0  0
  8 20  1  0  0  0  0
  9  8  2  0  0  0  0
  9 10  1  0  0  0  0
 10 30  1  0  0  0  0
 10 21  2  0  0  0  0
 11 13  2  0  0  0  0
 11 12  1  0  0  0  0
 13 14  1  0  0  0  0
 15 13  1  0  0  0  0
 16 15  2  0  0  0  0
 17 16  1  0  0  0  0
 18 16  1  0  0  0  0
 19 18  1  0  0  0  0
 20 21  1  0  0  0  0
 20 18  2  0  0  0  0
 21 11  1  0  0  0  0
 22  8  1  0  0  0  0
 22  5  1  0  0  0  0
 23  5  1  0  0  0  0
 23 26  1  0  0  0  0
 23 24  1  0  0  0  0
 25 23  1  0  0  0  0
 26 27  1  0  0  0  0
 28 26  1  0  0  0  0
 29 26  1  0  0  0  0
 30  6  2  0  0  0  0
 31  7  1  0  0  0  0
 31 32  1  0  0  0  0
 33 31  1  0  0  0  0
 34 31  1  0  0  0  0
 34 36  1  0  0  0  0
 35 34  1  0  0  0  0
 37 34  1  0  0  0  0
M  END
