1
q = -1.0, confidence = 0.008

 21 20  0  0  0  0  0  0  0  0999 V2000
   -0.0573   -2.3089    0.4310 S   0  0  0  0  0  1  0  0  0  0  0  0
   -1.8438   -1.9091    0.6722 C   0  0  0  0  0  0  0  0  0  0  0  0
   -2.5119   -1.4807   -0.6361 C   0  0  0  0  0  0  0  0  0  0  0  0
   -3.8593   -1.0935   -0.4471 O   0  0  0  0  0  0  0  0  0  0  0  0
   -4.3795    0.4800   -0.0732 Si  0  0  0  0  0  0  0  0  0  0  0  0
   -3.3916    1.7404   -1.0773 C   0  0  0  0  0  0  0  0  0  0  0  0
   -6.2001    0.4908   -0.5452 C   0  0  0  0  0  0  0  0  0  0  0  0
   -4.1821    0.8413    1.7705 C   0  0  0  0  0  0  0  0  0  0  0  0
   -2.3218   -2.8226    1.0810 H   0  0  0  0  0  0  0  0  0  0  0  0
   -1.9319   -1.1105    1.4380 H   0  0  0  0  0  0  0  0  0  0  0  0
   -1.9078   -0.6635   -1.0952 H   0  0  0  0  0  0  0  0  0  0  0  0
   -2.4899   -2.3306   -1.3532 H   0  0  0  0  0  0  0  0  0  0  0  0
   -3.4388    1.5214   -2.1635 H   0  0  0  0  0  0  0  0  0  0  0  0
   -2.3262    1.7405   -0.7654 H   0  0  0  0  0  0  0  0  0  0  0  0
   -3.7935    2.7622   -0.9147 H   0  0  0  0  0  0  0  0  0  0  0  0
   -6.3307    0.2946   -1.6286 H   0  0  0  0  0  0  0  0  0  0  0  0
   -6.6679    1.4689   -0.3104 H   0  0  0  0  0  0  0  0  0  0  0  0
   -6.7514   -0.2944    0.0111 H   0  0  0  0  0  0  0  0  0  0  0  0
   -3.1116    0.9164    2.0514 H   0  0  0  0  0  0  0  0  0  0  0  0
   -4.6475    0.0413    2.3817 H   0  0  0  0  0  0  0  0  0  0  0  0
   -4.6710    1.8020    2.0370 H   0  0  0  0  0  0  0  0  0  0  0  0
  1  2  1  0  0  0  0
  2  9  1  0  0  0  0
  2 10  1  0  0  0  0
  3  4  1  0  0  0  0
  3  2  1  0  0  0  0
  4  5  1  0  0  0  0
  5  8  1  0  0  0  0
  6 15  1  0  0  0  0
  6 14  1  0  0  0  0
  6  5  1  0  0  0  0
  7 17  1  0  0  0  0
  7  5  1  0  0  0  0
  7 18  1  0  0  0  0
  8 21  1  0  0  0  0
  8 19  1  0  0  0  0
  8 20  1  0  0  0  0
 11  3  1  0  0  0  0
 12  3  1  0  0  0  0
 13  6  1  0  0  0  0
 16  7  1  0  0  0  0
M  END
