1
q = 0.0, confidence = 0.998

 38 39  0  0  1  0  0  0  0  0999 V2000
   -1.3389   -1.2140   -0.8682 S   0  0  0  0  0  1  0  0  0  0  0  0
    2.7470    0.8907   -0.6158 N   0  0  0  0  0  0  0  0  0  0  0  0
    0.0399    1.4051   -0.4683 N   0  0  0  0  0  2  0  0  0  0  0  0
   -1.2114    1.3187    0.0455 N   0  0  0  0  0  0  0  0  0  0  0  0
   -1.4796    1.9798    0.7876 H   0  0  0  0  0  0  0  0  0  0  0  0
   -3.2848    0.2994    0.2234 N   0  0  0  0  0  0  0  0  0  0  0  0
    0.5859    2.8421    1.3468 N   0  0  0  0  0  4  0  0  0  0  0  0
    0.2656    2.1308    2.0394 H   0  0  0  0  0  0  0  0  0  0  0  0
    1.4020    3.3187    1.7420 H   0  0  0  0  0  0  0  0  0  0  0  0
    3.9976    0.7318   -1.0659 C   0  0  0  0  0  0  0  0  0  0  0  0
    4.2994   -0.3161   -1.2442 H   0  0  0  0  0  0  0  0  0  0  0  0
    4.8623    1.8195   -1.2770 C   0  0  0  0  0  0  0  0  0  0  0  0
    5.8842    1.6518   -1.6471 H   0  0  0  0  0  0  0  0  0  0  0  0
    4.3935    3.1109   -0.9951 C   0  0  0  0  0  0  0  0  0  0  0  0
    5.0417    3.9873   -1.1473 H   0  0  0  0  0  0  0  0  0  0  0  0
    3.0824    3.2762   -0.5235 C   0  0  0  0  0  0  0  0  0  0  0  0
    2.6773    4.2772   -0.3112 H   0  0  0  0  0  0  0  0  0  0  0  0
    2.2830    2.1299   -0.3590 C   0  0  0  0  0  0  0  0  0  0  0  0
    0.8868    2.1611    0.1658 C   0  0  0  0  0  0  0  0  0  0  0  0
   -1.9788    0.2007   -0.1618 C   0  0  1  0  0  3  0  0  0  0  0  0
   -4.1121   -0.9083    0.3083 C   0  0  0  0  0  0  0  0  0  0  0  0
   -4.7773   -0.8092    1.1919 H   0  0  0  0  0  0  0  0  0  0  0  0
   -3.4186   -1.7503    0.4968 H   0  0  0  0  0  0  0  0  0  0  0  0
   -4.9181   -1.1806   -0.9689 C   0  0  0  0  0  0  0  0  0  0  0  0
   -4.2131   -1.1126   -1.8245 H   0  0  0  0  0  0  0  0  0  0  0  0
   -5.2615   -2.2364   -0.9400 H   0  0  0  0  0  0  0  0  0  0  0  0
   -6.1262   -0.2628   -1.1786 C   0  0  0  0  0  0  0  0  0  0  0  0
   -6.9051   -0.5090   -0.4214 H   0  0  0  0  0  0  0  0  0  0  0  0
   -6.5834   -0.4904   -2.1646 H   0  0  0  0  0  0  0  0  0  0  0  0
   -5.8377    1.2432   -1.0909 C   0  0  0  0  0  0  0  0  0  0  0  0
   -5.0800    1.5349   -1.8523 H   0  0  0  0  0  0  0  0  0  0  0  0
   -6.7646    1.7915   -1.3590 H   0  0  0  0  0  0  0  0  0  0  0  0
   -5.3786    1.7098    0.3018 C   0  0  0  0  0  0  0  0  0  0  0  0
   -5.9513    1.1659    1.0830 H   0  0  0  0  0  0  0  0  0  0  0  0
   -5.6304    2.7812    0.4476 H   0  0  0  0  0  0  0  0  0  0  0  0
   -3.8731    1.6002    0.5641 C   0  0  0  0  0  0  0  0  0  0  0  0
   -3.3566    2.3625   -0.0562 H   0  0  0  0  0  0  0  0  0  0  0  0
   -3.6660    1.8543    1.6318 H   0  0  0  0  0  0  0  0  0  0  0  0
  2 18  1  0  0  0  0
  3  4  1  0  0  0  0
  3 19  1  0  0  0  0
  4  5  1  0  0  0  0
  6 21  1  0  0  0  0
  6 36  1  0  0  0  0
  7  9  1  0  0  0  0
  7  8  1  0  0  0  0
 10  2  2  0  0  0  0
 11 10  1  0  0  0  0
 12 10  1  0  0  0  0
 12 14  2  0  0  0  0
 13 12  1  0  0  0  0
 14 16  1  0  0  0  0
 15 14  1  0  0  0  0
 16 18  2  0  0  0  0
 16 17  1  0  0  0  0
 18 19  1  0  0  0  0
 19  7  2  0  0  0  0
 20  1  1  6  0  0  0
 20  4  1  0  0  0  0
 20  6  1  0  0  0  0
 21 23  1  0  0  0  0
 21 22  1  0  0  0  0
 24 26  1  0  0  0  0
 24 21  1  0  0  0  0
 25 24  1  0  0  0  0
 27 30  1  0  0  0  0
 27 24  1  0  0  0  0
 27 28  1  0  0  0  0
 29 27  1  0  0  0  0
 30 33  1  0  0  0  0
 31 30  1  0  0  0  0
 32 30  1  0  0  0  0
 33 35  1  0  0  0  0
 33 36  1  0  0  0  0
 33 34  1  0  0  0  0
 36 38  1  0  0  0  0
 37 36  1  0  0  0  0
M  END
