1
q = -1.0, confidence = 0.0

 21 21  0  0  0  0  0  0  0  0999 V2000
    2.3142   -0.4962   -1.8745 S   0  0  0  0  0  1  0  0  0  0  0  0
    3.6043    0.0919   -0.7963 C   0  0  0  0  0  0  0  0  0  0  0  0
    4.4026   -0.7962   -0.0133 C   0  0  0  0  0  0  0  0  0  0  0  0
    5.4071   -0.2369    0.8018 C   0  0  0  0  0  0  0  0  0  0  0  0
    6.0273   -0.9044    1.4192 H   0  0  0  0  0  0  0  0  0  0  0  0
    5.6484    1.1455    0.8424 C   0  0  0  0  0  0  0  0  0  0  0  0
    6.4417    1.5444    1.4934 H   0  0  0  0  0  0  0  0  0  0  0  0
    4.8860    2.0082    0.0414 C   0  0  0  0  0  0  0  0  0  0  0  0
    5.0710    3.0934    0.0506 H   0  0  0  0  0  0  0  0  0  0  0  0
    3.8735    1.4798   -0.7696 C   0  0  0  0  0  0  0  0  0  0  0  0
    3.2612    2.1409   -1.4000 H   0  0  0  0  0  0  0  0  0  0  0  0
    4.2338   -2.3046   -0.1185 C   0  0  0  0  0  0  0  0  0  0  0  0
    3.1775   -2.4778   -0.4108 H   0  0  0  0  0  0  0  0  0  0  0  0
    4.5120   -3.0614    1.1844 C   0  0  0  0  0  0  0  0  0  0  0  0
    5.5818   -3.0136    1.4779 H   0  0  0  0  0  0  0  0  0  0  0  0
    4.2608   -4.1347    1.0622 H   0  0  0  0  0  0  0  0  0  0  0  0
    3.9053   -2.6635    2.0217 H   0  0  0  0  0  0  0  0  0  0  0  0
    5.0963   -2.8372   -1.2783 C   0  0  0  0  0  0  0  0  0  0  0  0
    4.8153   -2.3446   -2.2301 H   0  0  0  0  0  0  0  0  0  0  0  0
    4.9572   -3.9314   -1.4022 H   0  0  0  0  0  0  0  0  0  0  0  0
    6.1740   -2.6453   -1.0927 H   0  0  0  0  0  0  0  0  0  0  0  0
  1  2  1  0  0  0  0
  2 10  2  0  0  0  0
  2  3  1  0  0  0  0
  3  4  2  0  0  0  0
  4  6  1  0  0  0  0
  4  5  1  0  0  0  0
  6  7  1  0  0  0  0
  8  9  1  0  0  0  0
  8  6  2  0  0  0  0
 10  8  1  0  0  0  0
 11 10  1  0  0  0  0
 12  3  1  0  0  0  0
 12 14  1  0  0  0  0
 13 12  1  0  0  0  0
 14 15  1  0  0  0  0
 14 17  1  0  0  0  0
 16 14  1  0  0  0  0
 18 21  1  0  0  0  0
 18 12  1  0  0  0  0
 19 18  1  0  0  0  0
 20 18  1  0  0  0  0
M  END
