1
q = -1.0, confidence = 0.0

 19 19  0  0  0  0  0  0  0  0999 V2000
   -2.1714   -2.2582   -0.4895 S   0  0  0  0  0  1  0  0  0  0  0  0
    0.8268    1.1396    1.4927 N   0  0  0  0  0  0  0  0  0  0  0  0
   -1.7484    0.0536    1.4844 N   0  0  0  0  0  0  0  0  0  0  0  0
   -2.9803   -0.4275    1.4712 N   0  0  0  0  0  2  0  0  0  0  0  0
   -4.4969   -1.9247    0.7124 N   0  0  0  0  0  4  0  0  0  0  0  0
   -5.1105   -1.5193    1.4209 H   0  0  0  0  0  0  0  0  0  0  0  0
   -4.7735   -2.7460    0.1798 H   0  0  0  0  0  0  0  0  0  0  0  0
    2.0552    1.6619    1.5048 C   0  0  0  0  0  0  0  0  0  0  0  0
    2.7922    1.1786    0.8390 H   0  0  0  0  0  0  0  0  0  0  0  0
    2.4087    2.7639    2.3019 C   0  0  0  0  0  0  0  0  0  0  0  0
    3.4332    3.1623    2.2793 H   0  0  0  0  0  0  0  0  0  0  0  0
    1.4162    3.3316    3.1184 C   0  0  0  0  0  0  0  0  0  0  0  0
    1.6465    4.1959    3.7602 H   0  0  0  0  0  0  0  0  0  0  0  0
    0.1294    2.7864    3.1079 C   0  0  0  0  0  0  0  0  0  0  0  0
   -0.6720    3.2059    3.7349 H   0  0  0  0  0  0  0  0  0  0  0  0
   -0.1430    1.6730    2.2736 C   0  0  0  0  0  0  0  0  0  0  0  0
   -1.4775    1.0887    2.2359 C   0  0  0  0  0  0  0  0  0  0  0  0
   -2.2772    1.5420    2.8531 H   0  0  0  0  0  0  0  0  0  0  0  0
   -3.2190   -1.4656    0.6397 C   0  0  0  0  0  0  0  0  0  0  0  0
  1 19  1  0  0  0  0
  2  8  2  0  0  0  0
  2 16  1  0  0  0  0
  3 17  2  0  0  0  0
  4  3  1  0  0  0  0
  5  6  1  0  0  0  0
  7  5  1  0  0  0  0
  8 10  1  0  0  0  0
  9  8  1  0  0  0  0
 10 12  2  0  0  0  0
 11 10  1  0  0  0  0
 12 13  1  0  0  0  0
 14 12  1  0  0  0  0
 14 15  1  0  0  0  0
 16 14  2  0  0  0  0
 17 16  1  0  0  0  0
 17 18  1  0  0  0  0
 19  5  2  0  0  0  0
 19  4  1  0  0  0  0
M  END
