1
q = 0.0, confidence = 0.982

 25 25  0  0  0  0  0  0  0  0999 V2000
   -0.6346    1.8760   -0.1787 S   0  0  0  0  0  0  0  0  0  0  0  0
    1.0592    1.8874   -0.1162 C   0  0  0  0  0  0  0  0  0  0  0  0
    1.7335    3.0427   -0.0967 O   0  0  0  0  0  0  0  0  0  0  0  0
    1.0293    4.3015   -0.1042 C   0  0  0  0  0  0  0  0  0  0  0  0
    2.0601    5.4083   -0.0438 C   0  0  0  0  0  0  0  0  0  0  0  0
    1.8832    0.7039   -0.0956 C   0  0  0  0  0  0  0  0  0  0  0  0
    3.2476    0.7251    0.0007 C   0  0  0  0  0  0  0  0  0  0  0  0
    4.1270   -0.4344   -0.0134 C   0  0  0  0  0  0  0  0  0  0  0  0
    3.6660   -1.7477   -0.2940 C   0  0  0  0  0  0  0  0  0  0  0  0
    4.5520   -2.8277   -0.2844 C   0  0  0  0  0  0  0  0  0  0  0  0
    5.9151   -2.6276    0.0028 C   0  0  0  0  0  0  0  0  0  0  0  0
    6.3902   -1.3340    0.2730 C   0  0  0  0  0  0  0  0  0  0  0  0
    5.5062   -0.2494    0.2603 C   0  0  0  0  0  0  0  0  0  0  0  0
    0.3308    4.3210    0.7606 H   0  0  0  0  0  0  0  0  0  0  0  0
    0.4060    4.3514   -1.0235 H   0  0  0  0  0  0  0  0  0  0  0  0
    1.5504    6.3915   -0.0502 H   0  0  0  0  0  0  0  0  0  0  0  0
    2.6662    5.3389    0.8809 H   0  0  0  0  0  0  0  0  0  0  0  0
    2.7424    5.3664   -0.9155 H   0  0  0  0  0  0  0  0  0  0  0  0
    1.3347   -0.2431   -0.1615 H   0  0  0  0  0  0  0  0  0  0  0  0
    3.7370    1.7075    0.1086 H   0  0  0  0  0  0  0  0  0  0  0  0
    2.6094   -1.9207   -0.5447 H   0  0  0  0  0  0  0  0  0  0  0  0
    4.1796   -3.8385   -0.5087 H   0  0  0  0  0  0  0  0  0  0  0  0
    6.6079   -3.4827    0.0094 H   0  0  0  0  0  0  0  0  0  0  0  0
    7.4560   -1.1713    0.4927 H   0  0  0  0  0  0  0  0  0  0  0  0
    5.8759    0.7662    0.4714 H   0  0  0  0  0  0  0  0  0  0  0  0
  1  2  2  0  0  0  0
  2  3  1  0  0  0  0
  2  6  1  0  0  0  0
  4  3  1  0  0  0  0
  4  5  1  0  0  0  0
  4 14  1  0  0  0  0
  5 17  1  0  0  0  0
  6  7  2  0  0  0  0
  7 20  1  0  0  0  0
  8  7  1  0  0  0  0
  8 13  1  0  0  0  0
  9 10  1  0  0  0  0
  9  8  2  0  0  0  0
 10 11  2  0  0  0  0
 11 23  1  0  0  0  0
 11 12  1  0  0  0  0
 12 24  1  0  0  0  0
 13 12  2  0  0  0  0
 13 25  1  0  0  0  0
 15  4  1  0  0  0  0
 16  5  1  0  0  0  0
 18  5  1  0  0  0  0
 19  6  1  0  0  0  0
 21  9  1  0  0  0  0
 22 10  1  0  0  0  0
M  END
