1
q = 0.0, confidence = 1.0

 25 26  0  0  1  0  0  0  0  0999 V2000
    1.1563   -1.7778   -1.3607 S   0  0  0  0  0  1  0  0  0  0  0  0
    4.4198   -1.4637    1.1631 O   0  0  0  0  0  0  0  0  0  0  0  0
    3.3996   -0.2291   -0.9832 N   0  0  0  0  0  0  0  0  0  0  0  0
    1.5119    0.8543   -0.6309 N   0  0  0  0  0  0  0  0  0  0  0  0
    0.4841    1.0127   -0.6207 H   0  0  0  0  0  0  0  0  0  0  0  0
    5.9848   -2.5978   -0.0354 O   0  0  0  0  0  0  0  0  0  0  0  0
    3.7463    1.0703   -0.6028 C   0  0  0  0  0  0  0  0  0  0  0  0
    2.5305    1.7663   -0.3830 C   0  0  0  0  0  0  0  0  0  0  0  0
    2.5193    3.1079    0.0179 C   0  0  0  0  0  0  0  0  0  0  0  0
    1.5762    3.6453    0.1900 H   0  0  0  0  0  0  0  0  0  0  0  0
    2.0287   -0.3597   -0.9794 C   0  0  1  0  0  3  0  0  0  0  0  0
    4.9889    1.6893   -0.4236 C   0  0  0  0  0  0  0  0  0  0  0  0
    5.9332    1.1508   -0.5849 H   0  0  0  0  0  0  0  0  0  0  0  0
    4.3300   -1.3088   -1.2215 C   0  0  0  0  0  0  0  0  0  0  0  0
    5.1177   -0.9909   -1.9329 H   0  0  0  0  0  0  0  0  0  0  0  0
    3.7706   -2.1408   -1.6975 H   0  0  0  0  0  0  0  0  0  0  0  0
    4.9753    3.0354   -0.0228 C   0  0  0  0  0  0  0  0  0  0  0  0
    5.9307    3.5584    0.1277 H   0  0  0  0  0  0  0  0  0  0  0  0
    5.0219   -1.8664    0.0245 C   0  0  0  0  0  0  0  0  0  0  0  0
    3.7658    3.7308    0.1923 C   0  0  0  0  0  0  0  0  0  0  0  0
    3.8001    4.7844    0.5053 H   0  0  0  0  0  0  0  0  0  0  0  0
    5.0091   -1.9676    2.3765 C   0  0  0  0  0  0  0  0  0  0  0  0
    4.9767   -3.0746    2.3926 H   0  0  0  0  0  0  0  0  0  0  0  0
    4.4093   -1.5480    3.2025 H   0  0  0  0  0  0  0  0  0  0  0  0
    6.0652   -1.6439    2.4581 H   0  0  0  0  0  0  0  0  0  0  0  0
  2 22  1  0  0  0  0
  3 11  1  0  0  0  0
  3  7  1  0  0  0  0
  4  5  1  0  0  0  0
  4  8  1  0  0  0  0
  6 19  2  0  0  0  0
  7 12  2  0  0  0  0
  7  8  1  0  0  0  0
  8  9  2  0  0  0  0
  9 10  1  0  0  0  0
  9 20  1  0  0  0  0
 11  1  1  6  0  0  0
 11  4  1  0  0  0  0
 12 17  1  0  0  0  0
 13 12  1  0  0  0  0
 14  3  1  0  0  0  0
 14 19  1  0  0  0  0
 15 14  1  0  0  0  0
 16 14  1  0  0  0  0
 17 18  1  0  0  0  0
 17 20  2  0  0  0  0
 19  2  1  0  0  0  0
 20 21  1  0  0  0  0
 22 23  1  0  0  0  0
 22 25  1  0  0  0  0
 22 24  1  0  0  0  0
M  END
