1
q = 0.0, confidence = 0.998

 20 19  0  0  1  0  0  0  0  0999 V2000
   -0.3262    1.9707    0.0005 S   0  0  0  0  0  1  0  0  0  0  0  0
   -2.3400    0.1834    0.0002 N   0  0  0  0  0  0  0  0  0  0  0  0
   -3.6578   -0.1415   -0.0004 N   0  0  0  0  0  0  0  0  0  0  0  0
   -2.9648    2.3985   -0.0004 N   0  0  0  0  0  0  0  0  0  0  0  0
   -1.9674    1.4986   -0.0000 C   0  0  1  0  0  3  0  0  0  0  0  0
   -3.9921   -1.3966    0.0000 C   0  0  0  0  0  0  0  0  0  0  0  0
   -2.9950   -2.5268    0.0011 C   0  0  0  0  0  0  0  0  0  0  0  0
   -5.4567   -1.7167   -0.0007 C   0  0  0  0  0  0  0  0  0  0  0  0
   -2.7714    3.8317   -0.0001 C   0  0  0  0  0  0  0  0  0  0  0  0
   -1.5672   -0.5031   -0.0005 H   0  0  0  0  0  0  0  0  0  0  0  0
   -3.9018    1.9750   -0.0004 H   0  0  0  0  0  0  0  0  0  0  0  0
   -3.5006   -3.5091    0.0029 H   0  0  0  0  0  0  0  0  0  0  0  0
   -2.3361   -2.4824    0.8950 H   0  0  0  0  0  0  0  0  0  0  0  0
   -2.3371   -2.4851   -0.8936 H   0  0  0  0  0  0  0  0  0  0  0  0
   -5.7248   -2.3257    0.8893 H   0  0  0  0  0  0  0  0  0  0  0  0
   -5.7236   -2.3266   -0.8905 H   0  0  0  0  0  0  0  0  0  0  0  0
   -6.0621   -0.7919   -0.0016 H   0  0  0  0  0  0  0  0  0  0  0  0
   -2.2039    4.1611    0.8958 H   0  0  0  0  0  0  0  0  0  0  0  0
   -3.7606    4.3243   -0.0015 H   0  0  0  0  0  0  0  0  0  0  0  0
   -2.2014    4.1610   -0.8944 H   0  0  0  0  0  0  0  0  0  0  0  0
  3  6  2  0  0  0  0
  3  2  1  0  0  0  0
  4 11  1  0  0  0  0
  4  9  1  0  0  0  0
  4  5  1  0  0  0  0
  5  2  1  0  0  0  0
  5  1  1  1  0  0  0
  6  7  1  0  0  0  0
  7 12  1  0  0  0  0
  7 13  1  0  0  0  0
  8  6  1  0  0  0  0
  8 15  1  0  0  0  0
  9 18  1  0  0  0  0
 10  2  1  0  0  0  0
 14  7  1  0  0  0  0
 16  8  1  0  0  0  0
 17  8  1  0  0  0  0
 19  9  1  0  0  0  0
 20  9  1  0  0  0  0
M  END
