1
q = 0.0, confidence = 0.934

 10 10  0  0  0  0  0  0  0  0999 V2000
    1.7710   -0.0003   -1.2056 S   0  0  0  0  0  0  0  0  0  0  0  0
    2.9607    1.1558   -0.3340 C   0  0  0  0  0  0  0  0  0  0  0  0
    3.5718    0.0002    0.4846 C   0  0  0  0  0  0  0  0  0  0  0  0
    2.9608   -1.1559   -0.3333 C   0  0  0  0  0  0  0  0  0  0  0  0
    3.6401    1.6035   -1.0855 H   0  0  0  0  0  0  0  0  0  0  0  0
    2.4421    1.9550    0.2262 H   0  0  0  0  0  0  0  0  0  0  0  0
    4.6791    0.0003    0.5262 H   0  0  0  0  0  0  0  0  0  0  0  0
    3.1919    0.0005    1.5234 H   0  0  0  0  0  0  0  0  0  0  0  0
    2.4422   -1.9547    0.2273 H   0  0  0  0  0  0  0  0  0  0  0  0
    3.6402   -1.6039   -1.0846 H   0  0  0  0  0  0  0  0  0  0  0  0
  1  2  1  0  0  0  0
  1  4  1  0  0  0  0
  2  6  1  0  0  0  0
  2  3  1  0  0  0  0
  3  7  1  0  0  0  0
  3  8  1  0  0  0  0
  4  9  1  0  0  0  0
  4  3  1  0  0  0  0
  5  2  1  0  0  0  0
 10  4  1  0  0  0  0
M  END
