1
q = -1.0, confidence = 0.0

 26 26  0  0  0  0  0  0  0  0999 V2000
   -1.4141    2.5185   -0.0608 S   0  0  0  0  0  1  0  0  0  0  0  0
    0.8609    4.4218    0.0846 S   0  0  0  0  0  0  0  0  0  0  0  0
    0.3106    2.7274    0.0384 C   0  0  0  0  0  0  0  0  0  0  0  0
    1.3796    1.8377    0.0778 C   0  0  0  0  0  0  0  0  0  0  0  0
    2.3597    2.3328    0.1580 H   0  0  0  0  0  0  0  0  0  0  0  0
    1.4274    0.3961    0.0658 C   0  0  0  0  0  0  0  0  0  0  0  0
    0.4258   -0.3687    0.0779 O   0  0  0  0  0  0  0  0  0  0  0  0
   -0.6455    5.4292    0.0627 C   0  0  0  0  0  0  0  0  0  0  0  0
   -1.2220    5.2785   -0.8699 H   0  0  0  0  0  0  0  0  0  0  0  0
   -0.2823    6.4742    0.1118 H   0  0  0  0  0  0  0  0  0  0  0  0
   -1.2882    5.2155    0.9381 H   0  0  0  0  0  0  0  0  0  0  0  0
    2.7817   -0.2511    0.0674 C   0  0  0  0  0  0  0  0  0  0  0  0
    2.8625   -1.6193    0.4249 C   0  0  0  0  0  0  0  0  0  0  0  0
    1.9317   -2.1347    0.7020 H   0  0  0  0  0  0  0  0  0  0  0  0
    4.0786   -2.2945    0.4367 C   0  0  0  0  0  0  0  0  0  0  0  0
    4.1479   -3.3532    0.7260 H   0  0  0  0  0  0  0  0  0  0  0  0
    5.2681   -1.6223    0.0708 C   0  0  0  0  0  0  0  0  0  0  0  0
    5.2074   -0.2632   -0.3042 C   0  0  0  0  0  0  0  0  0  0  0  0
    6.1112    0.2810   -0.6085 H   0  0  0  0  0  0  0  0  0  0  0  0
    3.9752    0.4045   -0.2975 C   0  0  0  0  0  0  0  0  0  0  0  0
    3.9550    1.4569   -0.6159 H   0  0  0  0  0  0  0  0  0  0  0  0
    6.4062   -2.3608    0.1075 O   0  0  0  0  0  0  0  0  0  0  0  0
    7.6289   -1.7395   -0.2455 C   0  0  0  0  0  0  0  0  0  0  0  0
    7.6192   -1.3739   -1.2966 H   0  0  0  0  0  0  0  0  0  0  0  0
    8.4135   -2.5113   -0.1407 H   0  0  0  0  0  0  0  0  0  0  0  0
    7.8684   -0.8857    0.4271 H   0  0  0  0  0  0  0  0  0  0  0  0
  1  3  1  0  0  0  0
  3  4  2  0  0  0  0
  3  2  1  0  0  0  0
  4  5  1  0  0  0  0
  6 12  1  0  0  0  0
  6  4  1  0  0  0  0
  6  7  2  0  0  0  0
  8  2  1  0  0  0  0
  8 10  1  0  0  0  0
  8 11  1  0  0  0  0
  9  8  1  0  0  0  0
 12 13  1  0  0  0  0
 13 15  2  0  0  0  0
 13 14  1  0  0  0  0
 15 16  1  0  0  0  0
 17 22  1  0  0  0  0
 17 15  1  0  0  0  0
 18 20  1  0  0  0  0
 18 17  2  0  0  0  0
 19 18  1  0  0  0  0
 20 12  2  0  0  0  0
 21 20  1  0  0  0  0
 23 25  1  0  0  0  0
 23 22  1  0  0  0  0
 23 26  1  0  0  0  0
 24 23  1  0  0  0  0
M  END
