1
q = -1.0, confidence = 0.0

 22 22  0  0  0  0  0  0  0  0999 V2000
   -2.3632    2.3076    0.0242 S   0  0  0  0  0  1  0  0  0  0  0  0
   -0.5006    4.6169   -0.0704 S   0  0  0  0  0  0  0  0  0  0  0  0
    6.7888   -1.0171    0.0022 Br  0  0  0  0  0  0  0  0  0  0  0  0
    0.8327    0.7825   -0.0416 C   0  0  0  0  0  0  0  0  0  0  0  0
    0.5108    2.1848   -0.0459 C   0  0  0  0  0  0  0  0  0  0  0  0
    1.3789    2.8600   -0.0991 H   0  0  0  0  0  0  0  0  0  0  0  0
   -0.7137    2.8510   -0.0326 C   0  0  0  0  0  0  0  0  0  0  0  0
    2.2933    0.4102   -0.0261 C   0  0  0  0  0  0  0  0  0  0  0  0
    3.3217    1.2708    0.4144 C   0  0  0  0  0  0  0  0  0  0  0  0
    3.0847    2.2800    0.7813 H   0  0  0  0  0  0  0  0  0  0  0  0
    4.6581    0.8518    0.4316 C   0  0  0  0  0  0  0  0  0  0  0  0
    5.4511    1.5238    0.7884 H   0  0  0  0  0  0  0  0  0  0  0  0
    4.9765   -0.4437   -0.0069 C   0  0  0  0  0  0  0  0  0  0  0  0
    3.9724   -1.3229   -0.4475 C   0  0  0  0  0  0  0  0  0  0  0  0
    4.2360   -2.3343   -0.7877 H   0  0  0  0  0  0  0  0  0  0  0  0
    2.6422   -0.8923   -0.4445 C   0  0  0  0  0  0  0  0  0  0  0  0
    1.8362   -1.5629   -0.7758 H   0  0  0  0  0  0  0  0  0  0  0  0
   -2.1733    5.3136   -0.0651 C   0  0  0  0  0  0  0  0  0  0  0  0
   -2.7496    4.9880   -0.9520 H   0  0  0  0  0  0  0  0  0  0  0  0
   -2.0186    6.4095   -0.1011 H   0  0  0  0  0  0  0  0  0  0  0  0
   -2.7217    5.0441    0.8577 H   0  0  0  0  0  0  0  0  0  0  0  0
    0.0062   -0.1667   -0.0749 O   0  0  0  0  0  0  0  0  0  0  0  0
  2 18  1  0  0  0  0
  2  7  1  0  0  0  0
  4  8  1  0  0  0  0
  5  4  1  0  0  0  0
  5  7  2  0  0  0  0
  6  5  1  0  0  0  0
  7  1  1  0  0  0  0
  8  9  1  0  0  0  0
  9 11  2  0  0  0  0
  9 10  1  0  0  0  0
 11 12  1  0  0  0  0
 13  3  1  0  0  0  0
 13 11  1  0  0  0  0
 14 16  1  0  0  0  0
 14 13  2  0  0  0  0
 15 14  1  0  0  0  0
 16  8  2  0  0  0  0
 17 16  1  0  0  0  0
 18 21  1  0  0  0  0
 19 18  1  0  0  0  0
 20 18  1  0  0  0  0
 22  4  2  0  0  0  0
M  END
