1,6,27,41
q = -2.0, confidence = 0.764

 63 66  0  0  0  0  0  0  0  0999 V2000
    0.3083   -1.3675    1.3143 N   0  0  0  0  0  2  0  0  0  0  0  0
    1.7274    0.9135    2.0497 N   0  0  0  0  0  0  0  0  0  0  0  0
    0.2679    2.4774    1.7398 N   0  0  0  0  0  0  0  0  0  0  0  0
   -0.2681    2.4774   -1.7399 N   0  0  0  0  0  0  0  0  0  0  0  0
   -1.7275    0.9133   -2.0497 N   0  0  0  0  0  0  0  0  0  0  0  0
   -0.3082   -1.3676   -1.3143 N   0  0  0  0  0  2  0  0  0  0  0  0
    1.7290   -2.5321    2.7309 O   0  0  0  0  0  0  0  0  0  0  0  0
   -1.7287   -2.5321   -2.7310 O   0  0  0  0  0  0  0  0  0  0  0  0
   -0.7382   -2.3634    1.4761 C   0  0  0  0  0  0  0  0  0  0  0  0
   -0.5701   -2.8743    2.4525 H   0  0  0  0  0  0  0  0  0  0  0  0
   -0.6692   -3.1668    0.7077 H   0  0  0  0  0  0  0  0  0  0  0  0
   -2.1236   -1.7602    1.4178 C   0  0  0  0  0  0  0  0  0  0  0  0
   -2.3970   -0.5147    2.0230 C   0  0  0  0  0  0  0  0  0  0  0  0
   -1.5836    0.0081    2.5476 H   0  0  0  0  0  0  0  0  0  0  0  0
   -3.6803    0.0493    1.9607 C   0  0  0  0  0  0  0  0  0  0  0  0
   -3.8745    1.0225    2.4392 H   0  0  0  0  0  0  0  0  0  0  0  0
   -4.7204   -0.6281    1.3005 C   0  0  0  0  0  0  0  0  0  0  0  0
   -5.7275   -0.1865    1.2504 H   0  0  0  0  0  0  0  0  0  0  0  0
   -4.4629   -1.8747    0.7073 C   0  0  0  0  0  0  0  0  0  0  0  0
   -5.2664   -2.4120    0.1802 H   0  0  0  0  0  0  0  0  0  0  0  0
   -3.1744   -2.4305    0.7616 C   0  0  0  0  0  0  0  0  0  0  0  0
   -2.9672   -3.3856    0.2539 H   0  0  0  0  0  0  0  0  0  0  0  0
    1.4340   -1.5489    2.0319 C   0  0  0  0  0  0  0  0  0  0  0  0
    2.4181   -0.3675    1.9385 C   0  0  0  0  0  0  0  0  0  0  0  0
    3.1363   -0.4595    2.7716 H   0  0  0  0  0  0  0  0  0  0  0  0
    2.9749   -0.4034    0.9801 H   0  0  0  0  0  0  0  0  0  0  0  0
    0.6437    1.2368    1.2757 C   0  0  0  0  0  2  0  0  0  0  0  0
    2.0198    1.9086    2.9661 C   0  0  0  0  0  0  0  0  0  0  0  0
    2.8380    1.8160    3.6861 H   0  0  0  0  0  0  0  0  0  0  0  0
    1.1032    2.9078    2.7672 C   0  0  0  0  0  0  0  0  0  0  0  0
    0.9624    3.8673    3.2736 H   0  0  0  0  0  0  0  0  0  0  0  0
   -0.6889    3.3491    1.0772 C   0  0  0  0  0  0  0  0  0  0  0  0
   -1.1639    3.9977    1.8394 H   0  0  0  0  0  0  0  0  0  0  0  0
   -1.4815    2.7100    0.6417 H   0  0  0  0  0  0  0  0  0  0  0  0
   -0.0002    4.2000   -0.0000 C   0  0  0  0  0  0  0  0  0  0  0  0
   -0.7577    4.8608   -0.4721 H   0  0  0  0  0  0  0  0  0  0  0  0
    0.7573    4.8609    0.4720 H   0  0  0  0  0  0  0  0  0  0  0  0
    0.6886    3.3491   -1.0772 C   0  0  0  0  0  0  0  0  0  0  0  0
    1.1636    3.9978   -1.8395 H   0  0  0  0  0  0  0  0  0  0  0  0
    1.4813    2.7101   -0.6417 H   0  0  0  0  0  0  0  0  0  0  0  0
   -0.6439    1.2367   -1.2757 C   0  0  0  0  0  2  0  0  0  0  0  0
   -1.1033    2.9076   -2.7673 C   0  0  0  0  0  0  0  0  0  0  0  0
   -0.9626    3.8671   -3.2737 H   0  0  0  0  0  0  0  0  0  0  0  0
   -2.0199    1.9083   -2.9661 C   0  0  0  0  0  0  0  0  0  0  0  0
   -2.8381    1.8157   -3.6862 H   0  0  0  0  0  0  0  0  0  0  0  0
   -2.4181   -0.3677   -1.9386 C   0  0  0  0  0  0  0  0  0  0  0  0
   -3.1363   -0.4597   -2.7716 H   0  0  0  0  0  0  0  0  0  0  0  0
   -2.9748   -0.4036   -0.9801 H   0  0  0  0  0  0  0  0  0  0  0  0
   -1.4338   -1.5490   -2.0319 C   0  0  0  0  0  0  0  0  0  0  0  0
    0.7383   -2.3634   -1.4760 C   0  0  0  0  0  0  0  0  0  0  0  0
    0.5703   -2.8743   -2.4523 H   0  0  0  0  0  0  0  0  0  0  0  0
    0.6694   -3.1667   -0.7075 H   0  0  0  0  0  0  0  0  0  0  0  0
    2.1237   -1.7601   -1.4177 C   0  0  0  0  0  0  0  0  0  0  0  0
    2.3970   -0.5147   -2.0230 C   0  0  0  0  0  0  0  0  0  0  0  0
    1.5837    0.0080   -2.5478 H   0  0  0  0  0  0  0  0  0  0  0  0
    3.6804    0.0494   -1.9608 C   0  0  0  0  0  0  0  0  0  0  0  0
    3.8746    1.0225   -2.4394 H   0  0  0  0  0  0  0  0  0  0  0  0
    4.7204   -0.6278   -1.3005 C   0  0  0  0  0  0  0  0  0  0  0  0
    5.7275   -0.1863   -1.2504 H   0  0  0  0  0  0  0  0  0  0  0  0
    4.4630   -1.8745   -0.7071 C   0  0  0  0  0  0  0  0  0  0  0  0
    5.2665   -2.4116   -0.1800 H   0  0  0  0  0  0  0  0  0  0  0  0
    3.1746   -2.4303   -0.7614 C   0  0  0  0  0  0  0  0  0  0  0  0
    2.9673   -3.3853   -0.2536 H   0  0  0  0  0  0  0  0  0  0  0  0
  1  9  1  0  0  0  0
  1 23  1  0  0  0  0
  2 28  1  0  0  0  0
  3 30  1  0  0  0  0
  4 41  1  0  0  0  0
  4 38  1  0  0  0  0
  5 46  1  0  0  0  0
  5 41  1  0  0  0  0
  8 49  2  0  0  0  0
  9 10  1  0  0  0  0
 11  9  1  0  0  0  0
 12  9  1  0  0  0  0
 12 13  1  0  0  0  0
 13 14  1  0  0  0  0
 15 13  2  0  0  0  0
 15 16  1  0  0  0  0
 17 15  1  0  0  0  0
 18 17  1  0  0  0  0
 19 21  1  0  0  0  0
 19 17  2  0  0  0  0
 20 19  1  0  0  0  0
 21 12  2  0  0  0  0
 22 21  1  0  0  0  0
 23  7  2  0  0  0  0
 24 23  1  0  0  0  0
 24  2  1  0  0  0  0
 24 25  1  0  0  0  0
 26 24  1  0  0  0  0
 27  3  1  0  0  0  0
 27  2  1  0  0  0  0
 28 29  1  0  0  0  0
 30 28  2  0  0  0  0
 30 31  1  0  0  0  0
 32  3  1  0  0  0  0
 32 33  1  0  0  0  0
 34 32  1  0  0  0  0
 35 37  1  0  0  0  0
 35 32  1  0  0  0  0
 36 35  1  0  0  0  0
 38 40  1  0  0  0  0
 38 35  1  0  0  0  0
 39 38  1  0  0  0  0
 42  4  1  0  0  0  0
 43 42  1  0  0  0  0
 44 42  2  0  0  0  0
 44  5  1  0  0  0  0
 45 44  1  0  0  0  0
 46 48  1  0  0  0  0
 47 46  1  0  0  0  0
 49 46  1  0  0  0  0
 49  6  1  0  0  0  0
 50 53  1  0  0  0  0
 50  6  1  0  0  0  0
 50 52  1  0  0  0  0
 51 50  1  0  0  0  0
 53 62  1  0  0  0  0
 54 56  1  0  0  0  0
 54 53  2  0  0  0  0
 55 54  1  0  0  0  0
 56 58  2  0  0  0  0
 57 56  1  0  0  0  0
 58 59  1  0  0  0  0
 58 60  1  0  0  0  0
 60 61  1  0  0  0  0
 62 60  2  0  0  0  0
 62 63  1  0  0  0  0
M  END
