4,5,7,10
q = -1.0

 72 75  0  0  1  0  0  0  0  0999 V2000
   -0.9449   -1.6199   -1.3017 S   0  0  0  0  0  0  0  0  0  0  0  0
   -0.2771   -2.9473   -1.3376 O   0  0  0  0  0  0  0  0  0  0  0  0
   -1.3481   -0.9809   -2.5816 O   0  0  0  0  0  0  0  0  0  0  0  0
    1.8287    1.3256    0.1845 N   0  0  0  0  0  0  0  0  0  0  0  0
   -0.0582   -0.5619   -0.3269 N   0  0  0  0  0  2  0  0  0  0  0  0
    3.0428   -1.1817    1.8130 C   0  0  0  0  0  0  0  0  0  0  0  0
    1.9698   -2.1153    1.6533 C   0  0  0  0  0  3  0  0  0  0  0  0
    1.8809   -2.9245    0.4722 C   0  0  0  0  0  0  0  0  0  0  0  0
    2.8296   -2.8113   -0.5857 C   0  0  0  0  0  0  0  0  0  0  0  0
    3.9054   -1.8602   -0.4094 C   0  0  0  0  0  3  0  0  0  0  0  0
    4.0388   -1.0977    0.7759 C   0  0  0  0  0  0  0  0  0  0  0  0
    2.7022   -3.5781   -1.8698 C   0  0  0  0  0  0  0  0  0  0  0  0
    3.1328   -0.3374    3.0682 C   0  0  0  0  0  0  0  0  0  0  0  0
    2.0173    0.7103    3.2300 C   0  0  0  0  0  0  0  0  0  0  0  0
    2.3195    2.0631    2.5724 C   0  0  0  0  0  0  0  0  0  0  0  0
    2.7356    2.0581    1.0999 C   0  0  0  0  0  0  0  0  0  0  0  0
    0.4080    1.7461    0.2895 C   0  0  2  0  0  0  0  0  0  0  0  0
   -0.4456    0.8365   -0.6105 C   0  0  2  0  0  0  0  0  0  0  0  0
    0.2137    3.2117   -0.0514 C   0  0  0  0  0  0  0  0  0  0  0  0
    0.6579    3.7150   -1.2917 C   0  0  0  0  0  0  0  0  0  0  0  0
    0.4574    5.0624   -1.6241 C   0  0  0  0  0  0  0  0  0  0  0  0
   -0.1966    5.9214   -0.7255 C   0  0  0  0  0  0  0  0  0  0  0  0
   -0.6506    5.4256    0.5063 C   0  0  0  0  0  0  0  0  0  0  0  0
   -0.4443    4.0783    0.8397 C   0  0  0  0  0  0  0  0  0  0  0  0
   -1.9120    1.1513   -0.3391 C   0  0  0  0  0  0  0  0  0  0  0  0
   -2.7191    1.7038   -1.3472 C   0  0  0  0  0  0  0  0  0  0  0  0
   -4.0606    2.0260   -1.0902 C   0  0  0  0  0  0  0  0  0  0  0  0
   -4.6105    1.7936    0.1797 C   0  0  0  0  0  0  0  0  0  0  0  0
   -3.8115    1.2370    1.1927 C   0  0  0  0  0  0  0  0  0  0  0  0
   -2.4714    0.9228    0.9335 C   0  0  0  0  0  0  0  0  0  0  0  0
   -2.4626   -1.9015   -0.3611 C   0  0  0  0  0  0  0  0  0  0  0  0
   -3.6979   -1.6274   -0.9590 C   0  0  0  0  0  0  0  0  0  0  0  0
   -4.8725   -1.8383   -0.2257 C   0  0  0  0  0  0  0  0  0  0  0  0
   -4.8325   -2.3251    1.0967 C   0  0  0  0  0  0  0  0  0  0  0  0
   -3.5726   -2.6193    1.6622 C   0  0  0  0  0  0  0  0  0  0  0  0
   -2.3903   -2.4131    0.9421 C   0  0  0  0  0  0  0  0  0  0  0  0
   -6.1013   -2.4914    1.8936 C   0  0  0  0  0  0  0  0  0  0  0  0
    2.1348    1.5160   -0.7929 H   0  0  0  0  0  0  0  0  0  0  0  0
    1.1801   -2.1737    2.4175 H   0  0  0  0  0  0  0  0  0  0  0  0
    0.9935   -3.5487    0.3079 H   0  0  0  0  0  0  0  0  0  0  0  0
    4.5903   -1.6729   -1.2491 H   0  0  0  0  0  0  0  0  0  0  0  0
    4.8458   -0.3533    0.8540 H   0  0  0  0  0  0  0  0  0  0  0  0
    3.3543   -4.4771   -1.8472 H   0  0  0  0  0  0  0  0  0  0  0  0
    3.0106   -2.9426   -2.7226 H   0  0  0  0  0  0  0  0  0  0  0  0
    1.6534   -3.8825   -2.0328 H   0  0  0  0  0  0  0  0  0  0  0  0
    4.1259    0.1575    3.1089 H   0  0  0  0  0  0  0  0  0  0  0  0
    3.1070   -1.0359    3.9308 H   0  0  0  0  0  0  0  0  0  0  0  0
    1.8384    0.8923    4.3099 H   0  0  0  0  0  0  0  0  0  0  0  0
    1.0705    0.2881    2.8304 H   0  0  0  0  0  0  0  0  0  0  0  0
    3.1490    2.5547    3.1254 H   0  0  0  0  0  0  0  0  0  0  0  0
    1.4452    2.7339    2.7056 H   0  0  0  0  0  0  0  0  0  0  0  0
    2.8050    3.1145    0.7593 H   0  0  0  0  0  0  0  0  0  0  0  0
    3.7416    1.6144    0.9716 H   0  0  0  0  0  0  0  0  0  0  0  0
    0.0920    1.5682    1.3350 H   0  0  0  0  0  0  0  0  0  0  0  0
   -0.2240    1.0892   -1.6709 H   0  0  0  0  0  0  0  0  0  0  0  0
    1.1556    3.0426   -2.0107 H   0  0  0  0  0  0  0  0  0  0  0  0
    0.8077    5.4426   -2.5957 H   0  0  0  0  0  0  0  0  0  0  0  0
   -0.3568    6.9779   -0.9889 H   0  0  0  0  0  0  0  0  0  0  0  0
   -1.1732    6.0902    1.2109 H   0  0  0  0  0  0  0  0  0  0  0  0
   -0.8188    3.6833    1.7974 H   0  0  0  0  0  0  0  0  0  0  0  0
   -2.2882    1.8609   -2.3471 H   0  0  0  0  0  0  0  0  0  0  0  0
   -4.6827    2.4551   -1.8906 H   0  0  0  0  0  0  0  0  0  0  0  0
   -5.6651    2.0381    0.3793 H   0  0  0  0  0  0  0  0  0  0  0  0
   -4.2398    1.0352    2.1866 H   0  0  0  0  0  0  0  0  0  0  0  0
   -1.8545    0.4552    1.7163 H   0  0  0  0  0  0  0  0  0  0  0  0
   -3.7159   -1.2270   -1.9822 H   0  0  0  0  0  0  0  0  0  0  0  0
   -5.8454   -1.6068   -0.6877 H   0  0  0  0  0  0  0  0  0  0  0  0
   -3.5221   -3.0139    2.6897 H   0  0  0  0  0  0  0  0  0  0  0  0
   -1.4100   -2.6268    1.3931 H   0  0  0  0  0  0  0  0  0  0  0  0
   -5.9563   -3.1607    2.7639 H   0  0  0  0  0  0  0  0  0  0  0  0
   -6.9224   -2.9033    1.2731 H   0  0  0  0  0  0  0  0  0  0  0  0
   -6.4535   -1.5117    2.2837 H   0  0  0  0  0  0  0  0  0  0  0  0
  1 31  1  0  0  0  0
  1  5  1  0  0  0  0
  2  1  2  0  0  0  0
  3  1  2  0  0  0  0
  4 17  1  0  0  0  0
  4 16  1  0  0  0  0
  6 13  1  0  0  0  0
  7  6  1  0  0  0  0
  7 39  1  0  0  0  0
  8  7  1  0  0  0  0
  9 10  1  0  0  0  0
  9  8  2  0  0  0  0
 10 11  1  0  0  0  0
 11 42  1  0  0  0  0
 11  6  2  0  0  0  0
 12 43  1  0  0  0  0
 12  9  1  0  0  0  0
 13 46  1  0  0  0  0
 13 14  1  0  0  0  0
 13 47  1  0  0  0  0
 14 48  1  0  0  0  0
 15 51  1  0  0  0  0
 15 50  1  0  0  0  0
 15 14  1  0  0  0  0
 16 15  1  0  0  0  0
 17 54  1  1  0  0  0
 18 55  1  6  0  0  0
 18 25  1  0  0  0  0
 18  5  1  0  0  0  0
 18 17  1  0  0  0  0
 19 17  1  0  0  0  0
 19 24  1  0  0  0  0
 20 19  2  0  0  0  0
 21 20  1  0  0  0  0
 21 22  2  0  0  0  0
 22 23  1  0  0  0  0
 23 24  2  0  0  0  0
 23 59  1  0  0  0  0
 24 60  1  0  0  0  0
 25 30  1  0  0  0  0
 26 27  1  0  0  0  0
 26 25  2  0  0  0  0
 27 28  2  0  0  0  0
 28 63  1  0  0  0  0
 28 29  1  0  0  0  0
 29 64  1  0  0  0  0
 30 29  2  0  0  0  0
 30 65  1  0  0  0  0
 31 36  1  0  0  0  0
 32 31  2  0  0  0  0
 32 33  1  0  0  0  0
 33 34  2  0  0  0  0
 34 35  1  0  0  0  0
 34 37  1  0  0  0  0
 35 68  1  0  0  0  0
 36 69  1  0  0  0  0
 36 35  2  0  0  0  0
 37 72  1  0  0  0  0
 37 70  1  0  0  0  0
 38  4  1  0  0  0  0
 40  8  1  0  0  0  0
 41 10  1  0  0  0  0
 44 12  1  0  0  0  0
 45 12  1  0  0  0  0
 49 14  1  0  0  0  0
 52 16  1  0  0  0  0
 53 16  1  0  0  0  0
 56 20  1  0  0  0  0
 57 21  1  0  0  0  0
 58 22  1  0  0  0  0
 61 26  1  0  0  0  0
 62 27  1  0  0  0  0
 66 32  1  0  0  0  0
 67 33  1  0  0  0  0
 71 37  1  0  0  0  0
M  END
