1,2,4,6
q = -1.0, confidence = 0.148

 69 73  0  0  1  0  0  0  0  0999 V2000
   -1.4441   -0.2447   -0.5529 N   0  0  0  0  0  2  0  0  0  0  0  0
    1.2801   -0.2183    0.4778 N   0  0  0  0  0  2  0  0  0  0  0  0
   -0.7440    2.1333   -0.6115 C   0  0  2  0  0  0  0  0  0  0  0  0
   -0.5230    1.6726   -2.0542 C   0  0  0  0  0  3  0  0  0  0  0  0
    0.7737    1.6008   -2.5764 C   0  0  0  0  0  3  0  0  0  0  0  0
    1.8683    1.4181   -1.7067 C   0  0  0  0  0  3  0  0  0  0  0  0
    1.8567    2.0040   -0.3053 C   0  0  1  0  0  0  0  0  0  0  0  0
    0.5412    2.8068   -0.0117 C   0  0  0  0  0  0  0  0  0  0  0  0
    0.3624    3.0844    1.4891 C   0  0  0  0  0  0  0  0  0  0  0  0
    0.6925    4.1795   -0.7113 C   0  0  0  0  0  0  0  0  0  0  0  0
   -1.4670    1.0099    0.2408 C   0  0  1  0  0  0  0  0  0  0  0  0
   -2.8614    1.4775    0.6297 C   0  0  0  0  0  0  0  0  0  0  0  0
   -3.1620    1.7654    1.9725 C   0  0  0  0  0  0  0  0  0  0  0  0
   -4.4338    2.2328    2.3416 C   0  0  0  0  0  0  0  0  0  0  0  0
   -5.4258    2.4121    1.3667 C   0  0  0  0  0  0  0  0  0  0  0  0
   -5.1365    2.1253    0.0215 C   0  0  0  0  0  0  0  0  0  0  0  0
   -3.8650    1.6649   -0.3429 C   0  0  0  0  0  0  0  0  0  0  0  0
    2.2173    0.8818    0.6885 C   0  0  2  0  0  0  0  0  0  0  0  0
    3.6962    0.5015    0.5650 C   0  0  0  0  0  0  0  0  0  0  0  0
    4.6914    1.4465    0.8892 C   0  0  0  0  0  0  0  0  0  0  0  0
    6.0527    1.1349    0.7609 C   0  0  0  0  0  0  0  0  0  0  0  0
    6.4448   -0.1372    0.3127 C   0  0  0  0  0  0  0  0  0  0  0  0
    5.4636   -1.0924    0.0078 C   0  0  0  0  0  0  0  0  0  0  0  0
    4.1023   -0.7741    0.1361 C   0  0  0  0  0  0  0  0  0  0  0  0
   -2.5339   -1.1235   -0.4245 C   0  0  0  0  0  0  0  0  0  0  0  0
   -3.0098   -1.5378    0.8462 C   0  0  0  0  0  0  0  0  0  0  0  0
   -4.0959   -2.4150    0.9549 C   0  0  0  0  0  0  0  0  0  0  0  0
   -4.7395   -2.9071   -0.1924 C   0  0  0  0  0  0  0  0  0  0  0  0
   -4.2885   -2.4941   -1.4560 C   0  0  0  0  0  0  0  0  0  0  0  0
   -3.2093   -1.6072   -1.5699 C   0  0  0  0  0  0  0  0  0  0  0  0
    1.1343   -1.1085    1.5465 C   0  0  0  0  0  0  0  0  0  0  0  0
    0.1715   -2.1553    1.4878 C   0  0  0  0  0  0  0  0  0  0  0  0
   -0.0207   -3.0412    2.5525 C   0  0  0  0  0  0  0  0  0  0  0  0
    0.7462   -2.9369    3.7246 C   0  0  0  0  0  0  0  0  0  0  0  0
    1.7143   -1.9241    3.7991 C   0  0  0  0  0  0  0  0  0  0  0  0
    1.9131   -1.0291    2.7396 C   0  0  0  0  0  0  0  0  0  0  0  0
   -1.4858    2.9570   -0.6778 H   0  0  0  0  0  0  0  0  0  0  0  0
   -1.3858    1.6955   -2.7354 H   0  0  0  0  0  0  0  0  0  0  0  0
    0.9010    1.4582   -3.6591 H   0  0  0  0  0  0  0  0  0  0  0  0
    2.8573    1.2011   -2.1371 H   0  0  0  0  0  0  0  0  0  0  0  0
    2.6820    2.7482   -0.2433 H   0  0  0  0  0  0  0  0  0  0  0  0
   -0.5395    3.7063    1.6615 H   0  0  0  0  0  0  0  0  0  0  0  0
    1.2366    3.6387    1.8884 H   0  0  0  0  0  0  0  0  0  0  0  0
    0.2492    2.1638    2.0924 H   0  0  0  0  0  0  0  0  0  0  0  0
    1.5631    4.7297   -0.2997 H   0  0  0  0  0  0  0  0  0  0  0  0
   -0.2098    4.8034   -0.5484 H   0  0  0  0  0  0  0  0  0  0  0  0
    0.8426    4.0745   -1.8026 H   0  0  0  0  0  0  0  0  0  0  0  0
   -0.8955    0.8436    1.1795 H   0  0  0  0  0  0  0  0  0  0  0  0
   -2.3871    1.6127    2.7407 H   0  0  0  0  0  0  0  0  0  0  0  0
   -4.6514    2.4507    3.3985 H   0  0  0  0  0  0  0  0  0  0  0  0
   -6.4259    2.7712    1.6531 H   0  0  0  0  0  0  0  0  0  0  0  0
   -5.9121    2.2561   -0.7486 H   0  0  0  0  0  0  0  0  0  0  0  0
   -3.6497    1.4260   -1.3956 H   0  0  0  0  0  0  0  0  0  0  0  0
    2.0913    1.2845    1.7188 H   0  0  0  0  0  0  0  0  0  0  0  0
    4.3961    2.4440    1.2545 H   0  0  0  0  0  0  0  0  0  0  0  0
    6.8131    1.8887    1.0172 H   0  0  0  0  0  0  0  0  0  0  0  0
    7.5125   -0.3851    0.2126 H   0  0  0  0  0  0  0  0  0  0  0  0
    5.7585   -2.0993   -0.3261 H   0  0  0  0  0  0  0  0  0  0  0  0
    3.3310   -1.5241   -0.0806 H   0  0  0  0  0  0  0  0  0  0  0  0
   -2.5070   -1.1744    1.7523 H   0  0  0  0  0  0  0  0  0  0  0  0
   -4.4398   -2.7220    1.9549 H   0  0  0  0  0  0  0  0  0  0  0  0
   -5.5906   -3.5983   -0.1020 H   0  0  0  0  0  0  0  0  0  0  0  0
   -4.7939   -2.8511   -2.3669 H   0  0  0  0  0  0  0  0  0  0  0  0
   -2.8876   -1.2460   -2.5558 H   0  0  0  0  0  0  0  0  0  0  0  0
   -0.4551   -2.2520    0.5953 H   0  0  0  0  0  0  0  0  0  0  0  0
   -0.7919   -3.8218    2.4592 H   0  0  0  0  0  0  0  0  0  0  0  0
    0.5968   -3.6359    4.5607 H   0  0  0  0  0  0  0  0  0  0  0  0
    2.3405   -1.8265    4.6999 H   0  0  0  0  0  0  0  0  0  0  0  0
    2.7037   -0.2749    2.8384 H   0  0  0  0  0  0  0  0  0  0  0  0
  1 25  1  0  0  0  0
  1 11  1  0  0  0  0
  2 18  1  0  0  0  0
  2 31  1  0  0  0  0
  3 37  1  6  0  0  0
  3  8  1  0  0  0  0
  3 11  1  0  0  0  0
  4  3  1  0  0  0  0
  5  4  1  0  0  0  0
  5  6  1  0  0  0  0
  6  7  1  0  0  0  0
  7 41  1  1  0  0  0
  7  8  1  0  0  0  0
  7 18  1  0  0  0  0
  8  9  1  0  0  0  0
  9 42  1  0  0  0  0
  9 43  1  0  0  0  0
  9 44  1  0  0  0  0
 10 46  1  0  0  0  0
 10 45  1  0  0  0  0
 10  8  1  0  0  0  0
 11 12  1  0  0  0  0
 11 48  1  1  0  0  0
 12 13  1  0  0  0  0
 13 14  2  0  0  0  0
 13 49  1  0  0  0  0
 14 50  1  0  0  0  0
 15 51  1  0  0  0  0
 15 14  1  0  0  0  0
 16 15  2  0  0  0  0
 17 16  1  0  0  0  0
 17 12  2  0  0  0  0
 18 54  1  1  0  0  0
 19 18  1  0  0  0  0
 19 20  1  0  0  0  0
 20 55  1  0  0  0  0
 21 20  2  0  0  0  0
 21 56  1  0  0  0  0
 22 21  1  0  0  0  0
 23 24  1  0  0  0  0
 23 22  2  0  0  0  0
 24 19  2  0  0  0  0
 25 26  1  0  0  0  0
 26 27  2  0  0  0  0
 26 60  1  0  0  0  0
 27 61  1  0  0  0  0
 28 62  1  0  0  0  0
 28 27  1  0  0  0  0
 29 28  2  0  0  0  0
 30 29  1  0  0  0  0
 30 25  2  0  0  0  0
 31 36  1  0  0  0  0
 32 31  2  0  0  0  0
 32 33  1  0  0  0  0
 33 34  2  0  0  0  0
 34 35  1  0  0  0  0
 34 67  1  0  0  0  0
 35 68  1  0  0  0  0
 36 69  1  0  0  0  0
 36 35  2  0  0  0  0
 38  4  1  0  0  0  0
 39  5  1  0  0  0  0
 40  6  1  0  0  0  0
 47 10  1  0  0  0  0
 52 16  1  0  0  0  0
 53 17  1  0  0  0  0
 57 22  1  0  0  0  0
 58 23  1  0  0  0  0
 59 24  1  0  0  0  0
 63 29  1  0  0  0  0
 64 30  1  0  0  0  0
 65 32  1  0  0  0  0
 66 33  1  0  0  0  0
M  END
