5,6,9,17
q = -2.0, confidence = 0.686

 31 32  0  0  0  0  0  0  0  0999 V2000
   -2.6139    0.5410    0.3698 N   0  0  0  0  0  0  0  0  0  0  0  0
   -1.1916    2.0581   -0.2146 N   0  0  0  0  0  0  0  0  0  0  0  0
    1.1916    2.0581   -0.2149 N   0  0  0  0  0  0  0  0  0  0  0  0
    2.6142    0.5410    0.3691 N   0  0  0  0  0  0  0  0  0  0  0  0
    1.3329   -1.9079   -0.3717 N   0  0  0  0  0  2  0  0  0  0  0  0
   -1.3332   -1.9076   -0.3727 N   0  0  0  0  0  2  0  0  0  0  0  0
    3.3796   -2.9541   -0.1333 O   0  0  0  0  0  0  0  0  0  0  0  0
   -3.3803   -2.9533   -0.1354 O   0  0  0  0  0  0  0  0  0  0  0  0
   -1.3095    0.7030   -0.0017 C   0  0  0  0  0  2  0  0  0  0  0  0
   -3.2923    1.7526    0.3799 C   0  0  0  0  0  0  0  0  0  0  0  0
   -4.3475    1.8273    0.6586 H   0  0  0  0  0  0  0  0  0  0  0  0
   -2.3960    2.7189    0.0050 C   0  0  0  0  0  0  0  0  0  0  0  0
   -2.5147    3.7984   -0.1280 H   0  0  0  0  0  0  0  0  0  0  0  0
   -0.0001    2.6527   -0.7839 C   0  0  0  0  0  0  0  0  0  0  0  0
   -0.0000    3.7389   -0.5711 H   0  0  0  0  0  0  0  0  0  0  0  0
   -0.0002    2.5073   -1.8879 H   0  0  0  0  0  0  0  0  0  0  0  0
    1.3096    0.7030   -0.0018 C   0  0  0  0  0  2  0  0  0  0  0  0
    2.3961    2.7189    0.0040 C   0  0  0  0  0  0  0  0  0  0  0  0
    2.5148    3.7983   -0.1293 H   0  0  0  0  0  0  0  0  0  0  0  0
    3.2926    1.7526    0.3787 C   0  0  0  0  0  0  0  0  0  0  0  0
    4.3479    1.8274    0.6569 H   0  0  0  0  0  0  0  0  0  0  0  0
    3.2008   -0.7480    0.7252 C   0  0  0  0  0  0  0  0  0  0  0  0
    3.0762   -0.9162    1.8170 H   0  0  0  0  0  0  0  0  0  0  0  0
    4.2840   -0.7158    0.5087 H   0  0  0  0  0  0  0  0  0  0  0  0
    2.6262   -1.9783   -0.0096 C   0  0  0  0  0  0  0  0  0  0  0  0
   -3.2003   -0.7482    0.7259 C   0  0  0  0  0  0  0  0  0  0  0  0
   -4.2837   -0.7158    0.5106 H   0  0  0  0  0  0  0  0  0  0  0  0
   -3.0745   -0.9171    1.8175 H   0  0  0  0  0  0  0  0  0  0  0  0
   -2.6264   -1.9780   -0.0105 C   0  0  0  0  0  0  0  0  0  0  0  0
   -1.0483   -2.8125   -0.7730 H   0  0  0  0  0  0  0  0  0  0  0  0
    1.0476   -2.8134   -0.7704 H   0  0  0  0  0  0  0  0  0  0  0  0
  1 10  1  0  0  0  0
  1 26  1  0  0  0  0
  2  9  1  0  0  0  0
  2 12  1  0  0  0  0
  3 17  1  0  0  0  0
  3 18  1  0  0  0  0
  4 20  1  0  0  0  0
  4 22  1  0  0  0  0
  5 25  1  0  0  0  0
  6 29  1  0  0  0  0
  7 25  2  0  0  0  0
  8 29  2  0  0  0  0
  9  1  1  0  0  0  0
 10 11  1  0  0  0  0
 12 10  2  0  0  0  0
 13 12  1  0  0  0  0
 14 15  1  0  0  0  0
 14  3  1  0  0  0  0
 14  2  1  0  0  0  0
 16 14  1  0  0  0  0
 17  4  1  0  0  0  0
 18 20  2  0  0  0  0
 19 18  1  0  0  0  0
 20 21  1  0  0  0  0
 22 23  1  0  0  0  0
 24 22  1  0  0  0  0
 25 22  1  0  0  0  0
 26 28  1  0  0  0  0
 27 26  1  0  0  0  0
 29 26  1  0  0  0  0
 30  6  1  0  0  0  0
 31  5  1  0  0  0  0
M  END
