1,8,22,23
q = -2.0, confidence = 0.808

 42 43  0  0  0  0  0  0  0  0999 V2000
    2.1388    0.8736   -0.0553 C   0  0  0  0  0  3  0  0  0  0  0  0
    2.9578    1.5582   -0.9777 C   0  0  0  0  0  0  0  0  0  0  0  0
    4.3396    1.3097   -1.0713 C   0  0  0  0  0  0  0  0  0  0  0  0
    4.9323    0.3503   -0.2378 C   0  0  0  0  0  0  0  0  0  0  0  0
    4.1395   -0.3462    0.6875 C   0  0  0  0  0  0  0  0  0  0  0  0
    2.7588   -0.0865    0.7893 C   0  0  0  0  0  0  0  0  0  0  0  0
    1.9500   -0.8020    1.8631 C   0  0  0  0  0  0  0  0  0  0  0  0
    0.5995   -1.1800    1.4256 N   0  0  0  0  0  0  0  0  0  0  0  0
   -0.3112   -1.4189    2.5387 C   0  0  0  0  0  0  0  0  0  0  0  0
    0.6091   -2.2822    0.4575 C   0  0  0  0  0  0  0  0  0  0  0  0
    2.5157    2.3125   -1.6496 H   0  0  0  0  0  0  0  0  0  0  0  0
    4.9529    1.8623   -1.8009 H   0  0  0  0  0  0  0  0  0  0  0  0
    6.0106    0.1393   -0.3094 H   0  0  0  0  0  0  0  0  0  0  0  0
    4.6015   -1.1037    1.3434 H   0  0  0  0  0  0  0  0  0  0  0  0
    1.8249   -0.1150    2.7286 H   0  0  0  0  0  0  0  0  0  0  0  0
    2.5171   -1.6856    2.2516 H   0  0  0  0  0  0  0  0  0  0  0  0
   -0.0061   -2.2966    3.1630 H   0  0  0  0  0  0  0  0  0  0  0  0
   -1.3383   -1.5960    2.1646 H   0  0  0  0  0  0  0  0  0  0  0  0
   -0.3507   -0.5238    3.1901 H   0  0  0  0  0  0  0  0  0  0  0  0
    1.5346   -2.1912   -0.1468 H   0  0  0  0  0  0  0  0  0  0  0  0
    0.6694   -3.2706    0.9798 H   0  0  0  0  0  0  0  0  0  0  0  0
   -2.1389    0.8731    0.0604 C   0  0  0  0  0  3  0  0  0  0  0  0
   -0.5992   -1.1716   -1.4323 N   0  0  0  0  0  0  0  0  0  0  0  0
   -2.9581    1.5523    0.9867 C   0  0  0  0  0  0  0  0  0  0  0  0
   -2.7588   -0.0821   -0.7899 C   0  0  0  0  0  0  0  0  0  0  0  0
   -1.9498   -0.7912   -1.8677 C   0  0  0  0  0  0  0  0  0  0  0  0
    0.3116   -1.4036   -2.5467 C   0  0  0  0  0  0  0  0  0  0  0  0
   -0.6088   -2.2795   -0.4708 C   0  0  0  0  0  0  0  0  0  0  0  0
   -4.3399    1.3032    1.0786 C   0  0  0  0  0  0  0  0  0  0  0  0
   -2.5161    2.3026    1.6632 H   0  0  0  0  0  0  0  0  0  0  0  0
   -4.1395   -0.3423   -0.6899 C   0  0  0  0  0  0  0  0  0  0  0  0
   -1.8247   -0.0992   -2.7292 H   0  0  0  0  0  0  0  0  0  0  0  0
   -2.5168   -1.6726   -2.2614 H   0  0  0  0  0  0  0  0  0  0  0  0
    0.0067   -2.2777   -3.1763 H   0  0  0  0  0  0  0  0  0  0  0  0
    1.3387   -1.5828   -2.1737 H   0  0  0  0  0  0  0  0  0  0  0  0
    0.3509   -0.5047   -3.1928 H   0  0  0  0  0  0  0  0  0  0  0  0
   -1.5342   -2.1922    0.1340 H   0  0  0  0  0  0  0  0  0  0  0  0
   -0.6690   -3.2648   -0.9990 H   0  0  0  0  0  0  0  0  0  0  0  0
   -4.9325    0.3488    0.2394 C   0  0  0  0  0  0  0  0  0  0  0  0
   -4.9534    1.8516    1.8113 H   0  0  0  0  0  0  0  0  0  0  0  0
   -4.6013   -1.0959   -1.3503 H   0  0  0  0  0  0  0  0  0  0  0  0
   -6.0107    0.1373    0.3095 H   0  0  0  0  0  0  0  0  0  0  0  0
  1  6  1  0  0  0  0
  2  1  2  0  0  0  0
  3  2  1  0  0  0  0
  3  4  2  0  0  0  0
  4  5  1  0  0  0  0
  5  6  2  0  0  0  0
  5 14  1  0  0  0  0
  6  7  1  0  0  0  0
  7 16  1  0  0  0  0
  7 15  1  0  0  0  0
  8  7  1  0  0  0  0
  8  9  1  0  0  0  0
  9 17  1  0  0  0  0
  9 19  1  0  0  0  0
 10 21  1  0  0  0  0
 10  8  1  0  0  0  0
 11  2  1  0  0  0  0
 12  3  1  0  0  0  0
 13  4  1  0  0  0  0
 18  9  1  0  0  0  0
 20 10  1  0  0  0  0
 22 24  1  0  0  0  0
 23 28  1  0  0  0  0
 24 29  2  0  0  0  0
 24 30  1  0  0  0  0
 25 31  1  0  0  0  0
 25 22  2  0  0  0  0
 26 23  1  0  0  0  0
 26 25  1  0  0  0  0
 27 35  1  0  0  0  0
 27 23  1  0  0  0  0
 28 37  1  0  0  0  0
 28 10  1  0  0  0  0
 29 40  1  0  0  0  0
 31 39  2  0  0  0  0
 32 26  1  0  0  0  0
 33 26  1  0  0  0  0
 34 27  1  0  0  0  0
 36 27  1  0  0  0  0
 38 28  1  0  0  0  0
 39 42  1  0  0  0  0
 39 29  1  0  0  0  0
 41 31  1  0  0  0  0
M  END
