1,2,4,6
q = -1.0

 56 59  0  0  1  0  0  0  0  0999 V2000
   -1.5519    0.1738    0.9834 N   0  0  0  0  0  2  0  0  0  0  0  0
    1.2559   -0.2881    1.0000 N   0  0  0  0  0  2  0  0  0  0  0  0
   -1.7657   -1.5474   -0.7753 C   0  0  1  0  0  0  0  0  0  0  0  0
   -1.4748   -0.4124   -1.7544 C   0  0  0  0  0  3  0  0  0  0  0  0
   -0.2232   -0.3163   -2.3975 C   0  0  0  0  0  3  0  0  0  0  0  0
    0.9489   -0.8007   -1.7824 C   0  0  0  0  0  3  0  0  0  0  0  0
    0.8819   -1.9666   -0.7931 C   0  0  2  0  0  0  0  0  0  0  0  0
   -0.5736   -2.5857   -0.7213 C   0  0  0  0  0  0  0  0  0  0  0  0
   -0.7178   -3.5422    0.4700 C   0  0  0  0  0  0  0  0  0  0  0  0
   -0.7192   -3.4448   -2.0050 C   0  0  0  0  0  0  0  0  0  0  0  0
   -2.3364   -0.9729    0.5674 C   0  0  2  0  0  0  0  0  0  0  0  0
   -3.8256   -0.6474    0.3959 C   0  0  0  0  0  0  0  0  0  0  0  0
   -4.2633    0.6674    0.1587 C   0  0  0  0  0  0  0  0  0  0  0  0
   -5.6245    0.9456   -0.0432 C   0  0  0  0  0  0  0  0  0  0  0  0
   -6.5706   -0.0902   -0.0043 C   0  0  0  0  0  0  0  0  0  0  0  0
   -6.1456   -1.4067    0.2413 C   0  0  0  0  0  0  0  0  0  0  0  0
   -4.7846   -1.6794    0.4402 C   0  0  0  0  0  0  0  0  0  0  0  0
    1.6265   -1.6147    0.5436 C   0  0  1  0  0  0  0  0  0  0  0  0
    3.1385   -1.7780    0.3365 C   0  0  0  0  0  0  0  0  0  0  0  0
    3.7301   -3.0553    0.4024 C   0  0  0  0  0  0  0  0  0  0  0  0
    5.1030   -3.2264    0.1714 C   0  0  0  0  0  0  0  0  0  0  0  0
    5.9089   -2.1163   -0.1311 C   0  0  0  0  0  0  0  0  0  0  0  0
    5.3302   -0.8390   -0.1942 C   0  0  0  0  0  0  0  0  0  0  0  0
    3.9563   -0.6727    0.0414 C   0  0  0  0  0  0  0  0  0  0  0  0
   -1.3936    0.3457    2.4262 C   0  0  0  0  0  0  0  0  0  0  0  0
   -0.2339   -0.4817    3.0254 C   0  0  0  0  0  0  0  0  0  0  0  0
    1.1519   -0.1167    2.4453 C   0  0  0  0  0  0  0  0  0  0  0  0
   -2.6124   -2.1260   -1.2060 H   0  0  0  0  0  0  0  0  0  0  0  0
   -2.3436    0.0915   -2.2054 H   0  0  0  0  0  0  0  0  0  0  0  0
   -0.1295    0.3532   -3.2675 H   0  0  0  0  0  0  0  0  0  0  0  0
    1.9221   -0.6032   -2.2575 H   0  0  0  0  0  0  0  0  0  0  0  0
    1.4981   -2.7789   -1.2369 H   0  0  0  0  0  0  0  0  0  0  0  0
   -0.6286   -3.0367    1.4496 H   0  0  0  0  0  0  0  0  0  0  0  0
    0.0610   -4.3313    0.4304 H   0  0  0  0  0  0  0  0  0  0  0  0
   -1.7049   -4.0481    0.4438 H   0  0  0  0  0  0  0  0  0  0  0  0
   -0.6272   -2.8308   -2.9212 H   0  0  0  0  0  0  0  0  0  0  0  0
    0.0628   -4.2301   -2.0404 H   0  0  0  0  0  0  0  0  0  0  0  0
   -1.7070   -3.9482   -2.0291 H   0  0  0  0  0  0  0  0  0  0  0  0
   -2.2883   -1.7792    1.3352 H   0  0  0  0  0  0  0  0  0  0  0  0
   -3.5083    1.4680    0.1463 H   0  0  0  0  0  0  0  0  0  0  0  0
   -5.9499    1.9812   -0.2285 H   0  0  0  0  0  0  0  0  0  0  0  0
   -7.6387    0.1271   -0.1578 H   0  0  0  0  0  0  0  0  0  0  0  0
   -6.8813   -2.2247    0.2851 H   0  0  0  0  0  0  0  0  0  0  0  0
   -4.4572   -2.7139    0.6384 H   0  0  0  0  0  0  0  0  0  0  0  0
    1.3406   -2.3826    1.2985 H   0  0  0  0  0  0  0  0  0  0  0  0
    3.1027   -3.9298    0.6445 H   0  0  0  0  0  0  0  0  0  0  0  0
    5.5493   -4.2310    0.2352 H   0  0  0  0  0  0  0  0  0  0  0  0
    6.9872   -2.2472   -0.3096 H   0  0  0  0  0  0  0  0  0  0  0  0
    5.9556    0.0379   -0.4240 H   0  0  0  0  0  0  0  0  0  0  0  0
    3.4899    0.3228    0.0128 H   0  0  0  0  0  0  0  0  0  0  0  0
   -2.3462    0.1045    2.9529 H   0  0  0  0  0  0  0  0  0  0  0  0
   -1.2038    1.4220    2.6452 H   0  0  0  0  0  0  0  0  0  0  0  0
   -0.4325   -1.5638    2.8673 H   0  0  0  0  0  0  0  0  0  0  0  0
   -0.2143   -0.3260    4.1257 H   0  0  0  0  0  0  0  0  0  0  0  0
    1.9433   -0.7041    2.9683 H   0  0  0  0  0  0  0  0  0  0  0  0
    1.3618    0.9474    2.7018 H   0  0  0  0  0  0  0  0  0  0  0  0
  1 25  1  0  0  0  0
  2 27  1  0  0  0  0
  3 28  1  6  0  0  0
  3  8  1  0  0  0  0
  3 11  1  0  0  0  0
  4  3  1  0  0  0  0
  5  6  1  0  0  0  0
  5  4  1  0  0  0  0
  6  7  1  0  0  0  0
  7 32  1  6  0  0  0
  7  8  1  0  0  0  0
  7 18  1  0  0  0  0
  8  9  1  0  0  0  0
  9 33  1  0  0  0  0
 10  8  1  0  0  0  0
 11  1  1  0  0  0  0
 11 39  1  1  0  0  0
 12 17  1  0  0  0  0
 12 11  1  0  0  0  0
 13 12  2  0  0  0  0
 14 15  2  0  0  0  0
 14 13  1  0  0  0  0
 15 16  1  0  0  0  0
 16 43  1  0  0  0  0
 16 17  2  0  0  0  0
 17 44  1  0  0  0  0
 18  2  1  0  0  0  0
 18 45  1  1  0  0  0
 19 20  1  0  0  0  0
 19 18  1  0  0  0  0
 20 46  1  0  0  0  0
 21 47  1  0  0  0  0
 21 20  2  0  0  0  0
 22 21  1  0  0  0  0
 23 22  2  0  0  0  0
 23 24  1  0  0  0  0
 24 19  2  0  0  0  0
 25 52  1  0  0  0  0
 25 51  1  0  0  0  0
 25 26  1  0  0  0  0
 26 54  1  0  0  0  0
 27 56  1  0  0  0  0
 27 55  1  0  0  0  0
 27 26  1  0  0  0  0
 29  4  1  0  0  0  0
 30  5  1  0  0  0  0
 31  6  1  0  0  0  0
 34  9  1  0  0  0  0
 35  9  1  0  0  0  0
 36 10  1  0  0  0  0
 37 10  1  0  0  0  0
 38 10  1  0  0  0  0
 40 13  1  0  0  0  0
 41 14  1  0  0  0  0
 42 15  1  0  0  0  0
 48 22  1  0  0  0  0
 49 23  1  0  0  0  0
 50 24  1  0  0  0  0
 53 26  1  0  0  0  0
M  END
