19,26,39,43
q = -1.0

 46 47  0  0  0  0  0  0  0  0999 V2000
   -6.3994   -0.6433   -0.3997 F   0  0  0  0  0  0  0  0  0  0  0  0
   -5.2894   -1.2312    0.1184 C   0  0  0  0  0  0  0  0  0  0  0  0
    1.6188   -0.9630    2.0811 H   0  0  0  0  0  0  0  0  0  0  0  0
   -5.1109   -2.3943   -0.5537 F   0  0  0  0  0  0  0  0  0  0  0  0
   -5.5741   -1.5421    1.4063 F   0  0  0  0  0  0  0  0  0  0  0  0
   -4.0848   -0.3285    0.0108 C   0  0  0  0  0  0  0  0  0  0  0  0
   -3.2816   -0.3678   -1.1424 C   0  0  0  0  0  0  0  0  0  0  0  0
   -3.5108   -1.0874   -1.9412 H   0  0  0  0  0  0  0  0  0  0  0  0
   -2.1885    0.4959   -1.2623 C   0  0  0  0  0  0  0  0  0  0  0  0
   -1.5527    0.4792   -2.1566 H   0  0  0  0  0  0  0  0  0  0  0  0
   -1.9032    1.3959   -0.2251 C   0  0  0  0  0  0  0  0  0  0  0  0
   -2.7147    1.4602    0.9193 C   0  0  0  0  0  0  0  0  0  0  0  0
   -2.4885    2.2008    1.6992 H   0  0  0  0  0  0  0  0  0  0  0  0
   -3.8049    0.5906    1.0373 C   0  0  0  0  0  0  0  0  0  0  0  0
   -4.4435    0.6201    1.9317 H   0  0  0  0  0  0  0  0  0  0  0  0
   -0.3998    2.3957   -0.2782 S   0  0  0  0  0  0  0  0  0  0  0  0
   -0.6731    3.6006    0.5444 O   0  0  0  0  0  0  0  0  0  0  0  0
   -0.0236    2.5395   -1.7069 O   0  0  0  0  0  0  0  0  0  0  0  0
    0.7588    1.4935    0.4922 N   0  0  0  0  0  2  0  0  0  0  0  0
    0.6604    1.4911    1.9489 C   0  0  0  0  0  0  0  0  0  0  0  0
   -0.1361    0.7982    2.3155 H   0  0  0  0  0  0  0  0  0  0  0  0
    0.4395    2.5101    2.3258 H   0  0  0  0  0  0  0  0  0  0  0  0
    2.0096    1.0247    2.4580 C   0  0  0  0  0  0  0  0  0  0  0  0
    2.7948    1.7557    2.1748 H   0  0  0  0  0  0  0  0  0  0  0  0
    2.0190    0.9049    3.5643 H   0  0  0  0  0  0  0  0  0  0  0  0
    2.3347   -0.2612    1.7956 N   0  0  0  0  0  0  0  0  0  0  0  0
    3.6813   -0.7539    2.1447 C   0  0  0  0  0  0  0  0  0  0  0  0
    3.7022   -0.9674    3.2370 H   0  0  0  0  0  0  0  0  0  0  0  0
    4.4002    0.0757    1.9721 H   0  0  0  0  0  0  0  0  0  0  0  0
    4.1139   -1.9960    1.3662 C   0  0  0  0  0  0  0  0  0  0  0  0
    3.2721   -2.7210    1.3322 H   0  0  0  0  0  0  0  0  0  0  0  0
    4.9297   -2.4911    1.9320 H   0  0  0  0  0  0  0  0  0  0  0  0
    4.6152   -1.6905   -0.0558 C   0  0  0  0  0  0  0  0  0  0  0  0
    5.4858   -1.0050    0.0052 H   0  0  0  0  0  0  0  0  0  0  0  0
    4.9835   -2.6277   -0.5222 H   0  0  0  0  0  0  0  0  0  0  0  0
    3.5622   -1.0816   -0.9544 C   0  0  0  0  0  0  0  0  0  0  0  0
    2.4887   -1.8925   -1.4325 C   0  0  0  0  0  3  0  0  0  0  0  0
    2.4405   -2.9562   -1.1592 H   0  0  0  0  0  0  0  0  0  0  0  0
    1.3958   -1.2871   -2.1394 C   0  0  0  0  0  3  0  0  0  0  0  0
    0.5098   -1.8936   -2.3773 H   0  0  0  0  0  0  0  0  0  0  0  0
    1.3949    0.1037   -2.4273 C   0  0  0  0  0  3  0  0  0  0  0  0
    0.5335    0.5957   -2.8945 H   0  0  0  0  0  0  0  0  0  0  0  0
    2.4802    0.9212   -1.9516 C   0  0  0  0  0  3  0  0  0  0  0  0
    2.3976    2.0118   -2.0550 H   0  0  0  0  0  0  0  0  0  0  0  0
    3.5634    0.3383   -1.2397 C   0  0  0  0  0  0  0  0  0  0  0  0
    4.3609    0.9768   -0.8306 H   0  0  0  0  0  0  0  0  0  0  0  0
  1  2  1  0  0  0  0
  2  5  1  0  0  0  0
  4  2  1  0  0  0  0
  6  2  1  0  0  0  0
  6 14  1  0  0  0  0
  7  6  2  0  0  0  0
  8  7  1  0  0  0  0
  9  7  1  0  0  0  0
  9 11  2  0  0  0  0
 10  9  1  0  0  0  0
 11 12  1  0  0  0  0
 12 14  2  0  0  0  0
 12 13  1  0  0  0  0
 14 15  1  0  0  0  0
 16 11  1  0  0  0  0
 16 19  1  0  0  0  0
 16 17  2  0  0  0  0
 18 16  2  0  0  0  0
 19 20  1  0  0  0  0
 20 21  1  0  0  0  0
 20 22  1  0  0  0  0
 20 23  1  0  0  0  0
 23 25  1  0  0  0  0
 24 23  1  0  0  0  0
 26  3  1  0  0  0  0
 26 27  1  0  0  0  0
 26 23  1  0  0  0  0
 27 28  1  0  0  0  0
 29 27  1  0  0  0  0
 30 32  1  0  0  0  0
 30 27  1  0  0  0  0
 31 30  1  0  0  0  0
 33 34  1  0  0  0  0
 33 30  1  0  0  0  0
 35 33  1  0  0  0  0
 36 33  1  0  0  0  0
 37 38  1  0  0  0  0
 37 36  1  0  0  0  0
 39 37  1  0  0  0  0
 40 39  1  0  0  0  0
 41 39  1  0  0  0  0
 41 43  1  0  0  0  0
 42 41  1  0  0  0  0
 43 45  1  0  0  0  0
 44 43  1  0  0  0  0
 45 36  2  0  0  0  0
 45 46  1  0  0  0  0
M  END
