8,15,29,33
q = -1.0, confidence = 0.006

 36 36  0  0  0  0  0  0  0  0999 V2000
    2.7580   -1.3083   -1.1323 O   0  0  0  0  0  0  0  0  0  0  0  0
    3.7940    1.0309   -0.9433 O   0  0  0  0  0  0  0  0  0  0  0  0
    3.2761   -0.3319    1.2660 C   0  0  0  0  0  0  0  0  0  0  0  0
    2.5061   -0.9856    1.7133 H   0  0  0  0  0  0  0  0  0  0  0  0
    3.3218    0.6256    1.8154 H   0  0  0  0  0  0  0  0  0  0  0  0
    4.2675   -0.8209    1.2409 H   0  0  0  0  0  0  0  0  0  0  0  0
    2.8282    0.0146   -0.4554 S   0  0  0  0  0  0  0  0  0  0  0  0
    1.3150    0.6942   -0.4387 N   0  0  0  0  0  2  0  0  0  0  0  0
    1.2745    2.1305   -0.1899 C   0  0  0  0  0  0  0  0  0  0  0  0
    2.0851    2.6437   -0.7455 H   0  0  0  0  0  0  0  0  0  0  0  0
    1.3796    2.3834    0.8934 H   0  0  0  0  0  0  0  0  0  0  0  0
   -0.0835    2.5919   -0.6822 C   0  0  0  0  0  0  0  0  0  0  0  0
   -0.2665    3.6678   -0.4645 H   0  0  0  0  0  0  0  0  0  0  0  0
   -0.1604    2.4335   -1.7777 H   0  0  0  0  0  0  0  0  0  0  0  0
   -1.1221    1.7505   -0.0364 N   0  0  0  0  0  0  0  0  0  0  0  0
   -1.0883    1.9276    0.9892 H   0  0  0  0  0  0  0  0  0  0  0  0
   -2.4775    2.0324   -0.5474 C   0  0  0  0  0  0  0  0  0  0  0  0
   -2.4350    1.9849   -1.6569 H   0  0  0  0  0  0  0  0  0  0  0  0
   -2.7395    3.0824   -0.2864 H   0  0  0  0  0  0  0  0  0  0  0  0
   -3.5563    1.0845   -0.0232 C   0  0  0  0  0  0  0  0  0  0  0  0
   -4.5413    1.5779   -0.1559 H   0  0  0  0  0  0  0  0  0  0  0  0
   -3.4239    0.9431    1.0713 H   0  0  0  0  0  0  0  0  0  0  0  0
   -3.5878   -0.2770   -0.7396 C   0  0  0  0  0  0  0  0  0  0  0  0
   -4.4477   -0.8680   -0.3615 H   0  0  0  0  0  0  0  0  0  0  0  0
   -3.7700   -0.1128   -1.8220 H   0  0  0  0  0  0  0  0  0  0  0  0
   -2.3241   -1.0893   -0.5640 C   0  0  0  0  0  0  0  0  0  0  0  0
   -1.3515   -1.1866   -1.6328 C   0  0  0  0  0  0  0  0  0  0  0  0
   -1.5511   -0.6992   -2.5990 H   0  0  0  0  0  0  0  0  0  0  0  0
   -0.0966   -1.8121   -1.3992 C   0  0  0  0  0  3  0  0  0  0  0  0
    0.7054   -1.7635   -2.1485 H   0  0  0  0  0  0  0  0  0  0  0  0
    0.2101   -2.3791   -0.1116 C   0  0  0  0  0  3  0  0  0  0  0  0
    1.2229   -2.7612    0.0697 H   0  0  0  0  0  0  0  0  0  0  0  0
   -0.7535   -2.2863    0.9305 C   0  0  0  0  0  3  0  0  0  0  0  0
   -0.4843   -2.5986    1.9501 H   0  0  0  0  0  0  0  0  0  0  0  0
   -2.0326   -1.6772    0.7046 C   0  0  0  0  0  3  0  0  0  0  0  0
   -2.7341   -1.5537    1.5420 H   0  0  0  0  0  0  0  0  0  0  0  0
  1  7  2  0  0  0  0
  2  7  2  0  0  0  0
  3  4  1  0  0  0  0
  3  5  1  0  0  0  0
  6  3  1  0  0  0  0
  7  8  1  0  0  0  0
  7  3  1  0  0  0  0
  8  9  1  0  0  0  0
  9 11  1  0  0  0  0
 10  9  1  0  0  0  0
 12 13  1  0  0  0  0
 12  9  1  0  0  0  0
 12 15  1  0  0  0  0
 14 12  1  0  0  0  0
 15 16  1  0  0  0  0
 17 19  1  0  0  0  0
 17 15  1  0  0  0  0
 17 20  1  0  0  0  0
 18 17  1  0  0  0  0
 20 22  1  0  0  0  0
 21 20  1  0  0  0  0
 23 26  1  0  0  0  0
 23 24  1  0  0  0  0
 23 20  1  0  0  0  0
 25 23  1  0  0  0  0
 26 35  1  0  0  0  0
 27 29  1  0  0  0  0
 27 26  2  0  0  0  0
 28 27  1  0  0  0  0
 29 31  1  0  0  0  0
 30 29  1  0  0  0  0
 31 32  1  0  0  0  0
 31 33  1  0  0  0  0
 33 34  1  0  0  0  0
 35 33  1  0  0  0  0
 35 36  1  0  0  0  0
M  END
