2,5,8,17
q = 0.0, confidence = 0.586

 59 64  0  0  1  0  0  0  0  0999 V2000
   -0.0022   -4.4334    0.8705 O   0  0  0  0  0  0  0  0  0  0  0  0
    1.7128   -0.0593   -0.7127 N   0  0  0  0  0  2  0  0  0  0  0  0
    1.9333    1.1549   -1.1526 N   0  0  0  0  0  2  0  0  0  0  0  0
    3.2695    1.2888   -1.2087 N   0  0  0  0  0  0  0  0  0  0  0  0
   -1.7135   -0.0579   -0.7127 N   0  0  0  0  0  2  0  0  0  0  0  0
   -1.9330    1.1565   -1.1527 N   0  0  0  0  0  2  0  0  0  0  0  0
   -3.2691    1.2915   -1.2088 N   0  0  0  0  0  0  0  0  0  0  0  0
    1.4226   -2.5361    0.1823 C   0  0  0  0  0  3  0  0  0  0  0  0
    1.2217   -3.8479    0.6582 C   0  0  0  0  0  0  0  0  0  0  0  0
    2.3163   -4.6869    0.9625 C   0  0  0  0  0  0  0  0  0  0  0  0
    2.1045   -5.7018    1.3304 H   0  0  0  0  0  0  0  0  0  0  0  0
    3.6307   -4.2324    0.7979 C   0  0  0  0  0  0  0  0  0  0  0  0
    4.4717   -4.8991    1.0398 H   0  0  0  0  0  0  0  0  0  0  0  0
    3.8722   -2.9325    0.3267 C   0  0  0  0  0  0  0  0  0  0  0  0
    4.9033   -2.5693    0.1958 H   0  0  0  0  0  0  0  0  0  0  0  0
    2.7775   -2.1029    0.0257 C   0  0  0  0  0  0  0  0  0  0  0  0
   -1.4254   -2.5350    0.1822 C   0  0  0  0  0  2  0  0  0  0  0  0
   -2.7799   -2.1006    0.0255 C   0  0  1  0  0  3  0  0  0  0  0  0
   -3.8753   -2.9293    0.3265 C   0  0  0  0  0  0  0  0  0  0  0  0
   -4.9061   -2.5653    0.1955 H   0  0  0  0  0  0  0  0  0  0  0  0
   -3.6349   -4.2294    0.7977 C   0  0  0  0  0  0  0  0  0  0  0  0
   -4.4765   -4.8954    1.0395 H   0  0  0  0  0  0  0  0  0  0  0  0
   -2.3209   -4.6850    0.9623 C   0  0  0  0  0  0  0  0  0  0  0  0
   -2.1100   -5.7000    1.3303 H   0  0  0  0  0  0  0  0  0  0  0  0
   -1.2256   -3.8469    0.6581 C   0  0  0  0  0  0  0  0  0  0  0  0
    2.8967   -0.7349   -0.4671 C   0  0  0  0  0  0  0  0  0  0  0  0
    3.9149    0.1554   -0.7881 C   0  0  0  0  0  0  0  0  0  0  0  0
    5.0049    0.0837   -0.7462 H   0  0  0  0  0  0  0  0  0  0  0  0
   -2.8980   -0.7325   -0.4673 C   0  0  0  0  0  0  0  0  0  0  0  0
   -3.9154    0.1587   -0.7883 C   0  0  0  0  0  0  0  0  0  0  0  0
   -5.0055    0.0879   -0.7465 H   0  0  0  0  0  0  0  0  0  0  0  0
    3.8492    2.5728   -1.5803 C   0  0  0  0  0  0  0  0  0  0  0  0
    3.0227    3.1350   -2.0592 H   0  0  0  0  0  0  0  0  0  0  0  0
    4.6326    2.4024   -2.3454 H   0  0  0  0  0  0  0  0  0  0  0  0
    4.4133    3.3279   -0.3926 C   0  0  0  0  0  0  0  0  0  0  0  0
    3.6396    3.4902    0.7739 C   0  0  0  0  0  0  0  0  0  0  0  0
    2.6308    3.0503    0.8209 H   0  0  0  0  0  0  0  0  0  0  0  0
    4.1527    4.1997    1.8678 C   0  0  0  0  0  0  0  0  0  0  0  0
    3.5425    4.3181    2.7759 H   0  0  0  0  0  0  0  0  0  0  0  0
    5.4409    4.7582    1.8072 C   0  0  0  0  0  0  0  0  0  0  0  0
    5.8423    5.3144    2.6677 H   0  0  0  0  0  0  0  0  0  0  0  0
    6.2153    4.6002    0.6484 C   0  0  0  0  0  0  0  0  0  0  0  0
    7.2269    5.0303    0.5961 H   0  0  0  0  0  0  0  0  0  0  0  0
    5.7040    3.8835   -0.4455 C   0  0  0  0  0  0  0  0  0  0  0  0
    6.3164    3.7541   -1.3524 H   0  0  0  0  0  0  0  0  0  0  0  0
   -3.8477    2.5761   -1.5803 C   0  0  0  0  0  0  0  0  0  0  0  0
   -4.6320    2.4062   -2.3446 H   0  0  0  0  0  0  0  0  0  0  0  0
   -3.0210    3.1371   -2.0602 H   0  0  0  0  0  0  0  0  0  0  0  0
   -4.4098    3.3322   -0.3924 C   0  0  0  0  0  0  0  0  0  0  0  0
   -3.6344    3.4946    0.7731 C   0  0  0  0  0  0  0  0  0  0  0  0
   -2.6258    3.0541    0.8190 H   0  0  0  0  0  0  0  0  0  0  0  0
   -4.1458    4.2050    1.8672 C   0  0  0  0  0  0  0  0  0  0  0  0
   -3.5343    4.3234    2.7746 H   0  0  0  0  0  0  0  0  0  0  0  0
   -5.4337    4.7641    1.8081 C   0  0  0  0  0  0  0  0  0  0  0  0
   -5.8336    5.3210    2.6689 H   0  0  0  0  0  0  0  0  0  0  0  0
   -6.2097    4.6060    0.6504 C   0  0  0  0  0  0  0  0  0  0  0  0
   -7.2211    5.0367    0.5992 H   0  0  0  0  0  0  0  0  0  0  0  0
   -5.7002    3.8885   -0.4438 C   0  0  0  0  0  0  0  0  0  0  0  0
   -6.3139    3.7590   -1.3499 H   0  0  0  0  0  0  0  0  0  0  0  0
  2 26  1  0  0  0  0
  3  2  1  0  0  0  0
  4  3  1  0  0  0  0
  4 27  1  0  0  0  0
  5 29  1  0  0  0  0
  6  5  1  0  0  0  0
  7  6  1  0  0  0  0
  7 30  1  0  0  0  0
  8  9  1  0  0  0  0
  9  1  1  0  0  0  0
  9 10  2  0  0  0  0
 10 11  1  0  0  0  0
 12 10  1  0  0  0  0
 12 13  1  0  0  0  0
 14 12  2  0  0  0  0
 15 14  1  0  0  0  0
 16  8  2  0  0  0  0
 16 14  1  0  0  0  0
 17 25  1  0  0  0  0
 18 29  1  1  0  0  0
 18 17  1  0  0  0  0
 18 19  1  0  0  0  0
 19 21  2  0  0  0  0
 20 19  1  0  0  0  0
 21 23  1  0  0  0  0
 21 22  1  0  0  0  0
 23 24  1  0  0  0  0
 25  1  1  0  0  0  0
 25 23  2  0  0  0  0
 26 16  1  0  0  0  0
 27 28  1  0  0  0  0
 27 26  2  0  0  0  0
 30 31  1  0  0  0  0
 30 29  2  0  0  0  0
 32  4  1  0  0  0  0
 32 35  1  0  0  0  0
 33 32  1  0  0  0  0
 34 32  1  0  0  0  0
 35 36  1  0  0  0  0
 36 37  1  0  0  0  0
 36 38  2  0  0  0  0
 38 39  1  0  0  0  0
 40 38  1  0  0  0  0
 40 41  1  0  0  0  0
 42 40  2  0  0  0  0
 43 42  1  0  0  0  0
 44 35  2  0  0  0  0
 44 42  1  0  0  0  0
 45 44  1  0  0  0  0
 46  7  1  0  0  0  0
 46 49  1  0  0  0  0
 47 46  1  0  0  0  0
 48 46  1  0  0  0  0
 49 50  1  0  0  0  0
 50 51  1  0  0  0  0
 50 52  2  0  0  0  0
 52 53  1  0  0  0  0
 54 52  1  0  0  0  0
 54 55  1  0  0  0  0
 56 54  2  0  0  0  0
 57 56  1  0  0  0  0
 58 49  2  0  0  0  0
 58 56  1  0  0  0  0
 59 58  1  0  0  0  0
M  END
