1,5,12,26
q = -1.0

 70 71  0  0  1  0  0  0  0  0999 V2000
    0.8408    1.7899    0.4652 N   0  0  0  0  0  2  0  0  0  0  0  0
    0.5690    3.0919    0.2834 C   0  0  1  0  0  3  0  0  0  0  0  0
   -0.7666    3.5206    0.1626 C   0  0  0  0  0  0  0  0  0  0  0  0
   -1.8590    2.6352    0.0745 C   0  0  0  0  0  0  0  0  0  0  0  0
   -1.6648    1.3266    0.2729 N   0  0  0  0  0  2  0  0  0  0  0  0
    2.0840    1.1496    0.3495 C   0  0  0  0  0  0  0  0  0  0  0  0
    2.9056    1.1964   -0.8156 C   0  0  0  0  0  0  0  0  0  0  0  0
    4.0492    0.3847   -0.8264 C   0  0  0  0  0  0  0  0  0  0  0  0
    4.3355   -0.5010    0.2278 C   0  0  0  0  0  0  0  0  0  0  0  0
    3.4733   -0.6076    1.3182 C   0  0  0  0  0  0  0  0  0  0  0  0
    2.3412    0.2387    1.4279 C   0  0  0  0  0  0  0  0  0  0  0  0
    1.3663    0.2058    2.5584 C   0  0  0  0  0  3  0  0  0  0  0  0
    1.3218    1.4805    3.4038 C   0  0  0  0  0  0  0  0  0  0  0  0
    1.5620   -1.0098    3.4548 C   0  0  0  0  0  0  0  0  0  0  0  0
    2.5073    1.9623   -2.0711 C   0  0  0  0  0  0  0  0  0  0  0  0
    2.1049    0.9785   -3.1871 C   0  0  0  0  0  0  0  0  0  0  0  0
    3.6039    2.9292   -2.5446 C   0  0  0  0  0  0  0  0  0  0  0  0
    1.6808    4.1156    0.2713 C   0  0  0  0  0  0  0  0  0  0  0  0
   -3.2439    3.1760   -0.1814 C   0  0  0  0  0  0  0  0  0  0  0  0
   -2.5620    0.2581    0.1257 C   0  0  0  0  0  0  0  0  0  0  0  0
   -3.1917   -0.1179   -1.0987 C   0  0  0  0  0  0  0  0  0  0  0  0
   -3.9018   -1.3246   -1.1076 C   0  0  0  0  0  0  0  0  0  0  0  0
   -3.9377   -2.1698    0.0190 C   0  0  0  0  0  0  0  0  0  0  0  0
   -3.2651   -1.8294    1.1883 C   0  0  0  0  0  0  0  0  0  0  0  0
   -2.5884   -0.5852    1.2911 C   0  0  0  0  0  0  0  0  0  0  0  0
   -1.8111   -0.1391    2.4670 C   0  0  0  0  0  3  0  0  0  0  0  0
   -1.7064   -1.1823    3.5645 C   0  0  0  0  0  0  0  0  0  0  0  0
   -2.1360    1.2657    3.0103 C   0  0  0  0  0  0  0  0  0  0  0  0
   -3.0107    0.6720   -2.3880 C   0  0  0  0  0  0  0  0  0  0  0  0
   -2.2407   -0.1594   -3.4316 C   0  0  0  0  0  0  0  0  0  0  0  0
   -4.3509    1.1690   -2.9553 C   0  0  0  0  0  0  0  0  0  0  0  0
   -0.9600    4.5973    0.0651 H   0  0  0  0  0  0  0  0  0  0  0  0
    4.7090    0.4013   -1.7075 H   0  0  0  0  0  0  0  0  0  0  0  0
    5.2338   -1.1352    0.1760 H   0  0  0  0  0  0  0  0  0  0  0  0
    3.6907   -1.3261    2.1189 H   0  0  0  0  0  0  0  0  0  0  0  0
    2.2710    1.5957    3.9787 H   0  0  0  0  0  0  0  0  0  0  0  0
    1.1808    2.4065    2.8146 H   0  0  0  0  0  0  0  0  0  0  0  0
    0.5012    1.4291    4.1471 H   0  0  0  0  0  0  0  0  0  0  0  0
    2.5592   -0.9771    3.9558 H   0  0  0  0  0  0  0  0  0  0  0  0
    0.8149   -1.0322    4.2669 H   0  0  0  0  0  0  0  0  0  0  0  0
    1.4908   -1.9655    2.9009 H   0  0  0  0  0  0  0  0  0  0  0  0
    1.6026    2.5565   -1.8383 H   0  0  0  0  0  0  0  0  0  0  0  0
    1.3023    0.2992   -2.8423 H   0  0  0  0  0  0  0  0  0  0  0  0
    1.7452    1.5307   -4.0799 H   0  0  0  0  0  0  0  0  0  0  0  0
    2.9669    0.3535   -3.4994 H   0  0  0  0  0  0  0  0  0  0  0  0
    3.2586    3.5128   -3.4223 H   0  0  0  0  0  0  0  0  0  0  0  0
    4.5182    2.3818   -2.8539 H   0  0  0  0  0  0  0  0  0  0  0  0
    3.8973    3.6429   -1.7492 H   0  0  0  0  0  0  0  0  0  0  0  0
    2.6470    3.6679    0.5694 H   0  0  0  0  0  0  0  0  0  0  0  0
    1.8091    4.5768   -0.7288 H   0  0  0  0  0  0  0  0  0  0  0  0
    1.4362    4.9342    0.9775 H   0  0  0  0  0  0  0  0  0  0  0  0
   -3.3978    4.1049    0.4020 H   0  0  0  0  0  0  0  0  0  0  0  0
   -3.3952    3.4314   -1.2499 H   0  0  0  0  0  0  0  0  0  0  0  0
   -4.0198    2.4403    0.1035 H   0  0  0  0  0  0  0  0  0  0  0  0
   -4.3965   -1.6494   -2.0356 H   0  0  0  0  0  0  0  0  0  0  0  0
   -4.4841   -3.1233   -0.0389 H   0  0  0  0  0  0  0  0  0  0  0  0
   -3.2795   -2.5109    2.0487 H   0  0  0  0  0  0  0  0  0  0  0  0
   -1.2546   -2.1296    3.2120 H   0  0  0  0  0  0  0  0  0  0  0  0
   -2.7118   -1.4199    3.9875 H   0  0  0  0  0  0  0  0  0  0  0  0
   -1.0970   -0.8081    4.4076 H   0  0  0  0  0  0  0  0  0  0  0  0
   -3.0694    1.6750    2.5728 H   0  0  0  0  0  0  0  0  0  0  0  0
   -2.2850    1.2185    4.1091 H   0  0  0  0  0  0  0  0  0  0  0  0
   -1.3459    2.0261    2.8327 H   0  0  0  0  0  0  0  0  0  0  0  0
   -2.3808    1.5541   -2.1577 H   0  0  0  0  0  0  0  0  0  0  0  0
   -1.2851   -0.5254   -3.0123 H   0  0  0  0  0  0  0  0  0  0  0  0
   -2.0258    0.4517   -4.3324 H   0  0  0  0  0  0  0  0  0  0  0  0
   -2.8291   -1.0426   -3.7548 H   0  0  0  0  0  0  0  0  0  0  0  0
   -4.1884    1.7884   -3.8612 H   0  0  0  0  0  0  0  0  0  0  0  0
   -4.9151    1.7749   -2.2190 H   0  0  0  0  0  0  0  0  0  0  0  0
   -4.9984    0.3171   -3.2491 H   0  0  0  0  0  0  0  0  0  0  0  0
  2  3  1  1  0  0  0
  2  1  1  0  0  0  0
  4  3  2  0  0  0  0
  4  5  1  0  0  0  0
  6  1  1  0  0  0  0
  6 11  1  0  0  0  0
  7  6  2  0  0  0  0
  8  7  1  0  0  0  0
  8  9  2  0  0  0  0
  9 10  1  0  0  0  0
 10 11  2  0  0  0  0
 10 35  1  0  0  0  0
 11 12  1  0  0  0  0
 12 13  1  0  0  0  0
 12 14  1  0  0  0  0
 13 36  1  0  0  0  0
 13 38  1  0  0  0  0
 14 39  1  0  0  0  0
 14 40  1  0  0  0  0
 15 42  1  0  0  0  0
 15  7  1  0  0  0  0
 16 43  1  0  0  0  0
 16 15  1  0  0  0  0
 17 15  1  0  0  0  0
 17 48  1  0  0  0  0
 18  2  1  0  0  0  0
 18 49  1  0  0  0  0
 18 51  1  0  0  0  0
 19  4  1  0  0  0  0
 19 54  1  0  0  0  0
 19 52  1  0  0  0  0
 20  5  1  0  0  0  0
 20 25  1  0  0  0  0
 21 20  2  0  0  0  0
 22 21  1  0  0  0  0
 22 23  2  0  0  0  0
 23 24  1  0  0  0  0
 24 25  2  0  0  0  0
 24 57  1  0  0  0  0
 25 26  1  0  0  0  0
 26 28  1  0  0  0  0
 26 27  1  0  0  0  0
 27 59  1  0  0  0  0
 27 60  1  0  0  0  0
 28 62  1  0  0  0  0
 29 64  1  0  0  0  0
 29 21  1  0  0  0  0
 30 65  1  0  0  0  0
 30 29  1  0  0  0  0
 31 29  1  0  0  0  0
 31 69  1  0  0  0  0
 32  3  1  0  0  0  0
 33  8  1  0  0  0  0
 34  9  1  0  0  0  0
 37 13  1  0  0  0  0
 41 14  1  0  0  0  0
 44 16  1  0  0  0  0
 45 16  1  0  0  0  0
 46 17  1  0  0  0  0
 47 17  1  0  0  0  0
 50 18  1  0  0  0  0
 53 19  1  0  0  0  0
 55 22  1  0  0  0  0
 56 23  1  0  0  0  0
 58 27  1  0  0  0  0
 61 28  1  0  0  0  0
 63 28  1  0  0  0  0
 66 30  1  0  0  0  0
 67 30  1  0  0  0  0
 68 31  1  0  0  0  0
 70 31  1  0  0  0  0
M  END
