2,3,7,18
q = -1.0

 84 85  0  0  1  0  0  0  0  0999 V2000
   -2.4423    0.2302   -0.3635 P   0  0  0  0  0  4  0  0  0  0  0  0
    0.5202   -1.2353   -0.8720 N   0  0  0  0  0  2  0  0  0  0  0  0
    3.1795   -0.5111   -0.6502 N   0  0  0  0  0  0  0  0  0  0  0  0
   -1.6375    1.2176    0.6262 N   0  0  0  0  0  2  0  0  0  0  0  0
    1.9507    2.0470    0.9135 C   0  0  0  0  0  3  0  0  0  0  0  0
    2.6931    2.7468    0.5016 H   0  0  0  0  0  0  0  0  0  0  0  0
    2.3845    1.0784    1.8695 C   0  0  0  0  0  3  0  0  0  0  0  0
    3.4489    1.0453    2.1483 H   0  0  0  0  0  0  0  0  0  0  0  0
   -1.9456   -1.4683   -0.4709 C   0  0  2  0  0  3  0  0  0  0  0  0
   -0.6563   -1.9078   -0.8200 C   0  0  2  0  0  3  0  0  0  0  0  0
   -0.3263    1.1435    1.0136 C   0  0  0  0  0  0  0  0  0  0  0  0
    0.6057    2.1275    0.4957 C   0  0  0  0  0  0  0  0  0  0  0  0
    1.4816    0.1456    2.4332 C   0  0  0  0  0  3  0  0  0  0  0  0
    1.8114   -0.5522    3.2182 H   0  0  0  0  0  0  0  0  0  0  0  0
   -2.8871   -2.6495   -0.3096 C   0  0  0  0  0  0  0  0  0  0  0  0
   -3.9385   -2.4409   -0.5964 H   0  0  0  0  0  0  0  0  0  0  0  0
   -2.9195   -3.0132    0.7481 H   0  0  0  0  0  0  0  0  0  0  0  0
    0.1421    0.1269    1.9629 C   0  0  1  0  0  3  0  0  0  0  0  0
    0.1011    3.2577   -0.3789 C   0  0  0  0  0  0  0  0  0  0  0  0
   -0.7945    2.8606   -0.8963 H   0  0  0  0  0  0  0  0  0  0  0  0
    2.6345   -0.8517   -1.9865 C   0  0  0  0  0  0  0  0  0  0  0  0
    3.4158   -1.3120   -2.6372 H   0  0  0  0  0  0  0  0  0  0  0  0
    2.3000    0.0958   -2.4534 H   0  0  0  0  0  0  0  0  0  0  0  0
   -0.7368   -3.4151   -1.1355 C   0  0  0  0  0  0  0  0  0  0  0  0
   -0.2062   -3.6979   -2.0657 H   0  0  0  0  0  0  0  0  0  0  0  0
   -0.2407   -3.9800   -0.3107 H   0  0  0  0  0  0  0  0  0  0  0  0
   -4.2163    0.3190    0.1919 C   0  0  0  0  0  0  0  0  0  0  0  0
   -4.7908   -0.3382   -0.4954 H   0  0  0  0  0  0  0  0  0  0  0  0
   -2.4723    0.8897   -2.1260 C   0  0  0  0  0  0  0  0  0  0  0  0
   -2.7105    1.9677   -1.9844 H   0  0  0  0  0  0  0  0  0  0  0  0
   -1.0950    0.7689   -2.7896 C   0  0  0  0  0  0  0  0  0  0  0  0
   -0.2711    1.0679   -2.1135 H   0  0  0  0  0  0  0  0  0  0  0  0
   -1.0569    1.3942   -3.7063 H   0  0  0  0  0  0  0  0  0  0  0  0
   -0.9042   -0.2828   -3.0825 H   0  0  0  0  0  0  0  0  0  0  0  0
   -4.3599   -0.1951    1.6289 C   0  0  0  0  0  0  0  0  0  0  0  0
   -4.0385   -1.2485    1.7374 H   0  0  0  0  0  0  0  0  0  0  0  0
   -5.4193   -0.1277    1.9526 H   0  0  0  0  0  0  0  0  0  0  0  0
   -3.7475    0.4218    2.3149 H   0  0  0  0  0  0  0  0  0  0  0  0
   -4.7259    1.7628    0.0761 C   0  0  0  0  0  0  0  0  0  0  0  0
   -4.0696    2.4426    0.6559 H   0  0  0  0  0  0  0  0  0  0  0  0
   -5.7545    1.8383    0.4853 H   0  0  0  0  0  0  0  0  0  0  0  0
   -4.7550    2.1239   -0.9706 H   0  0  0  0  0  0  0  0  0  0  0  0
   -2.2384   -3.7169   -1.2109 C   0  0  0  0  0  0  0  0  0  0  0  0
   -2.4929   -4.7554   -0.9173 H   0  0  0  0  0  0  0  0  0  0  0  0
   -2.5892   -3.5675   -2.2541 H   0  0  0  0  0  0  0  0  0  0  0  0
    1.4620   -1.7918   -1.8364 C   0  0  0  0  0  0  0  0  0  0  0  0
    0.9987   -1.9103   -2.8454 H   0  0  0  0  0  0  0  0  0  0  0  0
    1.8313   -2.8106   -1.5634 H   0  0  0  0  0  0  0  0  0  0  0  0
    5.4679    0.2213   -1.5649 C   0  0  0  0  0  0  0  0  0  0  0  0
    6.1127    1.1209   -1.6189 H   0  0  0  0  0  0  0  0  0  0  0  0
    5.2605   -0.0947   -2.6064 H   0  0  0  0  0  0  0  0  0  0  0  0
    6.0611   -0.5775   -1.0766 H   0  0  0  0  0  0  0  0  0  0  0  0
    4.1967    0.5703   -0.7881 C   0  0  0  0  0  0  0  0  0  0  0  0
    4.4658    0.9111    0.2283 H   0  0  0  0  0  0  0  0  0  0  0  0
    3.6732    1.4188   -1.2701 H   0  0  0  0  0  0  0  0  0  0  0  0
   -3.5527    0.2258   -2.9867 C   0  0  0  0  0  0  0  0  0  0  0  0
   -3.3991   -0.8738   -3.0166 H   0  0  0  0  0  0  0  0  0  0  0  0
   -3.4968    0.5977   -4.0317 H   0  0  0  0  0  0  0  0  0  0  0  0
   -4.5800    0.4212   -2.6210 H   0  0  0  0  0  0  0  0  0  0  0  0
    3.7488   -1.7462   -0.0249 C   0  0  0  0  0  0  0  0  0  0  0  0
    4.4410   -2.2279   -0.7574 H   0  0  0  0  0  0  0  0  0  0  0  0
    2.9011   -2.4387    0.1230 H   0  0  0  0  0  0  0  0  0  0  0  0
   -0.8350   -0.8645    2.5676 C   0  0  0  0  0  0  0  0  0  0  0  0
   -1.6949   -0.9222    1.8770 H   0  0  0  0  0  0  0  0  0  0  0  0
   -0.2646   -2.2803    2.7023 C   0  0  0  0  0  0  0  0  0  0  0  0
    0.1567   -2.6230    1.7367 H   0  0  0  0  0  0  0  0  0  0  0  0
   -1.0567   -2.9923    3.0130 H   0  0  0  0  0  0  0  0  0  0  0  0
    0.5413   -2.3386    3.4645 H   0  0  0  0  0  0  0  0  0  0  0  0
    1.1111    3.7270   -1.4296 C   0  0  0  0  0  0  0  0  0  0  0  0
    1.9991    4.2114   -0.9706 H   0  0  0  0  0  0  0  0  0  0  0  0
    0.6516    4.4749   -2.1074 H   0  0  0  0  0  0  0  0  0  0  0  0
    1.4691    2.8782   -2.0488 H   0  0  0  0  0  0  0  0  0  0  0  0
   -0.3856    4.4175    0.5088 C   0  0  0  0  0  0  0  0  0  0  0  0
   -1.1601    4.0591    1.2151 H   0  0  0  0  0  0  0  0  0  0  0  0
   -0.8243    5.2339   -0.1030 H   0  0  0  0  0  0  0  0  0  0  0  0
    0.4516    4.8438    1.1006 H   0  0  0  0  0  0  0  0  0  0  0  0
    4.4617   -1.5654    1.3059 C   0  0  0  0  0  0  0  0  0  0  0  0
    5.3354   -0.8866    1.2473 H   0  0  0  0  0  0  0  0  0  0  0  0
    4.8370   -2.5527    1.6410 H   0  0  0  0  0  0  0  0  0  0  0  0
    3.7675   -1.1884    2.0780 H   0  0  0  0  0  0  0  0  0  0  0  0
   -1.3496   -0.3146    3.9083 C   0  0  0  0  0  0  0  0  0  0  0  0
   -0.5267   -0.2367    4.6502 H   0  0  0  0  0  0  0  0  0  0  0  0
   -2.1349   -0.9729    4.3351 H   0  0  0  0  0  0  0  0  0  0  0  0
   -1.7802    0.6982    3.7767 H   0  0  0  0  0  0  0  0  0  0  0  0
  1 27  1  0  0  0  0
  1  4  1  0  0  0  0
  3 60  1  0  0  0  0
  4 11  1  0  0  0  0
  5  7  1  0  0  0  0
  6  5  1  0  0  0  0
  7  8  1  0  0  0  0
  7 13  1  0  0  0  0
  9  1  1  6  0  0  0
  9 15  1  0  0  0  0
 10  2  1  1  0  0  0
 10  9  1  0  0  0  0
 11 18  1  0  0  0  0
 12  5  1  0  0  0  0
 12 11  2  0  0  0  0
 13 14  1  0  0  0  0
 15 17  1  0  0  0  0
 16 15  1  0  0  0  0
 18 13  1  0  0  0  0
 18 63  1  1  0  0  0
 19 12  1  0  0  0  0
 19 73  1  0  0  0  0
 20 19  1  0  0  0  0
 21 46  1  0  0  0  0
 21  3  1  0  0  0  0
 22 21  1  0  0  0  0
 23 21  1  0  0  0  0
 24 10  1  0  0  0  0
 24 26  1  0  0  0  0
 25 24  1  0  0  0  0
 27 35  1  0  0  0  0
 28 27  1  0  0  0  0
 29 30  1  0  0  0  0
 29  1  1  0  0  0  0
 31 29  1  0  0  0  0
 31 32  1  0  0  0  0
 33 31  1  0  0  0  0
 34 31  1  0  0  0  0
 35 36  1  0  0  0  0
 35 37  1  0  0  0  0
 35 38  1  0  0  0  0
 39 27  1  0  0  0  0
 39 41  1  0  0  0  0
 39 40  1  0  0  0  0
 42 39  1  0  0  0  0
 43 24  1  0  0  0  0
 43 44  1  0  0  0  0
 43 15  1  0  0  0  0
 45 43  1  0  0  0  0
 46 48  1  0  0  0  0
 46  2  1  0  0  0  0
 47 46  1  0  0  0  0
 49 52  1  0  0  0  0
 49 53  1  0  0  0  0
 50 49  1  0  0  0  0
 51 49  1  0  0  0  0
 53  3  1  0  0  0  0
 53 54  1  0  0  0  0
 55 53  1  0  0  0  0
 56 59  1  0  0  0  0
 56 29  1  0  0  0  0
 57 56  1  0  0  0  0
 58 56  1  0  0  0  0
 60 62  1  0  0  0  0
 60 77  1  0  0  0  0
 61 60  1  0  0  0  0
 63 65  1  0  0  0  0
 63 81  1  0  0  0  0
 64 63  1  0  0  0  0
 65 67  1  0  0  0  0
 65 68  1  0  0  0  0
 66 65  1  0  0  0  0
 69 70  1  0  0  0  0
 69 19  1  0  0  0  0
 71 69  1  0  0  0  0
 72 69  1  0  0  0  0
 73 76  1  0  0  0  0
 73 74  1  0  0  0  0
 75 73  1  0  0  0  0
 77 79  1  0  0  0  0
 77 80  1  0  0  0  0
 78 77  1  0  0  0  0
 81 83  1  0  0  0  0
 81 82  1  0  0  0  0
 84 81  1  0  0  0  0
M  END
