9,12,15,18
q = -1.0, confidence = 0.068

 67 70  0  0  1  0  0  0  0  0999 V2000
    0.3347   -1.1000    1.4992 S   0  0  0  0  0  0  0  0  0  0  0  0
    3.7021   -2.7864   -2.0612 F   0  0  0  0  0  0  0  0  0  0  0  0
    5.8323   -1.5653   -0.8463 F   0  0  0  0  0  0  0  0  0  0  0  0
    5.4736   -0.2341    1.5145 F   0  0  0  0  0  0  0  0  0  0  0  0
    3.0775   -0.1002    2.6640 F   0  0  0  0  0  0  0  0  0  0  0  0
    1.2319   -2.7594   -0.9076 O   0  0  0  0  0  0  0  0  0  0  0  0
   -0.2429   -2.4594    1.6014 O   0  0  0  0  0  0  0  0  0  0  0  0
    0.4502   -0.2643    2.7141 O   0  0  0  0  0  0  0  0  0  0  0  0
   -2.2835    1.4419   -0.7091 N   0  0  0  0  0  0  0  0  0  0  0  0
   -2.8339    1.6692   -1.5483 H   0  0  0  0  0  0  0  0  0  0  0  0
   -2.6825    1.9742    0.0895 H   0  0  0  0  0  0  0  0  0  0  0  0
   -0.4170   -0.2694    0.2353 N   0  0  0  0  0  2  0  0  0  0  0  0
   -2.9382   -2.6424    0.5303 C   0  0  0  0  0  0  0  0  0  0  0  0
   -2.3908   -3.2406    1.2689 H   0  0  0  0  0  0  0  0  0  0  0  0
   -4.0226   -1.8253    0.9442 C   0  0  0  0  0  3  0  0  0  0  0  0
   -4.2931   -1.7983    2.0102 H   0  0  0  0  0  0  0  0  0  0  0  0
   -4.7013   -0.9394    0.0331 C   0  0  2  0  0  3  0  0  0  0  0  0
   -4.1693   -0.8664   -1.2917 C   0  0  0  0  0  3  0  0  0  0  0  0
   -4.5875   -0.1153   -1.9829 H   0  0  0  0  0  0  0  0  0  0  0  0
   -3.0731   -1.6881   -1.7332 C   0  0  0  0  0  3  0  0  0  0  0  0
   -2.6978   -1.5868   -2.7614 H   0  0  0  0  0  0  0  0  0  0  0  0
   -2.4592   -2.6020   -0.8297 C   0  0  0  0  0  0  0  0  0  0  0  0
   -5.8063   -0.0409    0.5089 C   0  0  0  0  0  0  0  0  0  0  0  0
   -6.7346   -0.6182    0.6998 H   0  0  0  0  0  0  0  0  0  0  0  0
   -6.0391    0.7419   -0.2392 H   0  0  0  0  0  0  0  0  0  0  0  0
   -5.5030    0.4583    1.4521 H   0  0  0  0  0  0  0  0  0  0  0  0
   -1.3963   -3.5873   -1.2451 C   0  0  0  0  0  0  0  0  0  0  0  0
   -1.9487   -4.5281   -1.4671 H   0  0  0  0  0  0  0  0  0  0  0  0
   -0.7583   -3.7957   -0.3644 H   0  0  0  0  0  0  0  0  0  0  0  0
   -0.4926   -3.2478   -2.4350 C   0  0  0  0  0  0  0  0  0  0  0  0
    0.0047   -4.1833   -2.7650 H   0  0  0  0  0  0  0  0  0  0  0  0
   -1.0659   -2.8789   -3.3117 H   0  0  0  0  0  0  0  0  0  0  0  0
    0.5827   -2.2331   -2.0762 C   0  0  0  0  0  0  0  0  0  0  0  0
    1.3154   -2.1117   -2.9049 H   0  0  0  0  0  0  0  0  0  0  0  0
    0.1378   -1.2503   -1.8097 H   0  0  0  0  0  0  0  0  0  0  0  0
    2.2400   -2.0605   -0.3305 C   0  0  0  0  0  0  0  0  0  0  0  0
    3.5211   -2.1213   -0.9081 C   0  0  0  0  0  0  0  0  0  0  0  0
    4.6209   -1.5138   -0.2855 C   0  0  0  0  0  0  0  0  0  0  0  0
    4.4347   -0.8345    0.9252 C   0  0  0  0  0  0  0  0  0  0  0  0
    3.1587   -0.7684    1.5150 C   0  0  0  0  0  0  0  0  0  0  0  0
    2.0434   -1.3320    0.8678 C   0  0  0  0  0  0  0  0  0  0  0  0
   -0.8636    1.8290   -0.8937 C   0  0  2  0  0  0  0  0  0  0  0  0
   -0.5319    1.3790   -1.8518 H   0  0  0  0  0  0  0  0  0  0  0  0
   -0.0634    1.1727    0.2483 C   0  0  2  0  0  0  0  0  0  0  0  0
   -0.4006    1.6307    1.2044 H   0  0  0  0  0  0  0  0  0  0  0  0
   -0.6865    3.3324   -0.9467 C   0  0  0  0  0  0  0  0  0  0  0  0
   -0.0677    3.9475   -2.0497 C   0  0  0  0  0  0  0  0  0  0  0  0
    0.2870    3.3251   -2.8863 H   0  0  0  0  0  0  0  0  0  0  0  0
    0.1173    5.3380   -2.0810 C   0  0  0  0  0  0  0  0  0  0  0  0
    0.6076    5.8056   -2.9483 H   0  0  0  0  0  0  0  0  0  0  0  0
   -0.3174    6.1286   -1.0063 C   0  0  0  0  0  0  0  0  0  0  0  0
   -0.1720    7.2192   -1.0288 H   0  0  0  0  0  0  0  0  0  0  0  0
   -0.9341    5.5228    0.1008 C   0  0  0  0  0  0  0  0  0  0  0  0
   -1.2704    6.1365    0.9500 H   0  0  0  0  0  0  0  0  0  0  0  0
   -1.1155    4.1332    0.1327 C   0  0  0  0  0  0  0  0  0  0  0  0
   -1.5865    3.6636    1.0126 H   0  0  0  0  0  0  0  0  0  0  0  0
    1.4100    1.5109    0.0676 C   0  0  0  0  0  0  0  0  0  0  0  0
    2.1089    1.1654   -1.1071 C   0  0  0  0  0  0  0  0  0  0  0  0
    1.6029    0.5826   -1.8917 H   0  0  0  0  0  0  0  0  0  0  0  0
    3.4515    1.5292   -1.2729 C   0  0  0  0  0  0  0  0  0  0  0  0
    3.9903    1.2368   -2.1873 H   0  0  0  0  0  0  0  0  0  0  0  0
    4.1144    2.2545   -0.2674 C   0  0  0  0  0  0  0  0  0  0  0  0
    5.1728    2.5290   -0.3912 H   0  0  0  0  0  0  0  0  0  0  0  0
    3.4241    2.6112    0.8998 C   0  0  0  0  0  0  0  0  0  0  0  0
    3.9386    3.1680    1.6972 H   0  0  0  0  0  0  0  0  0  0  0  0
    2.0797    2.2429    1.0633 C   0  0  0  0  0  0  0  0  0  0  0  0
    1.5423    2.4949    1.9891 H   0  0  0  0  0  0  0  0  0  0  0  0
  1  7  2  0  0  0  0
  1  8  2  0  0  0  0
  2 37  1  0  0  0  0
  3 38  1  0  0  0  0
  6 36  1  0  0  0  0
  9 11  1  0  0  0  0
 10  9  1  0  0  0  0
 12 44  1  0  0  0  0
 12  1  1  0  0  0  0
 13 15  1  0  0  0  0
 13 14  1  0  0  0  0
 15 16  1  0  0  0  0
 17 23  1  1  0  0  0
 17 15  1  0  0  0  0
 18 17  1  0  0  0  0
 19 18  1  0  0  0  0
 20 18  1  0  0  0  0
 20 22  1  0  0  0  0
 21 20  1  0  0  0  0
 22 13  2  0  0  0  0
 23 24  1  0  0  0  0
 23 26  1  0  0  0  0
 25 23  1  0  0  0  0
 27 22  1  0  0  0  0
 27 29  1  0  0  0  0
 28 27  1  0  0  0  0
 30 33  1  0  0  0  0
 30 27  1  0  0  0  0
 31 30  1  0  0  0  0
 32 30  1  0  0  0  0
 33 35  1  0  0  0  0
 33  6  1  0  0  0  0
 34 33  1  0  0  0  0
 36 41  1  0  0  0  0
 37 36  2  0  0  0  0
 37 38  1  0  0  0  0
 38 39  2  0  0  0  0
 39  4  1  0  0  0  0
 39 40  1  0  0  0  0
 40  5  1  0  0  0  0
 41  1  1  0  0  0  0
 41 40  2  0  0  0  0
 42 43  1  6  0  0  0
 42  9  1  0  0  0  0
 42 44  1  0  0  0  0
 44 45  1  1  0  0  0
 46 42  1  0  0  0  0
 46 55  1  0  0  0  0
 47 46  2  0  0  0  0
 48 47  1  0  0  0  0
 49 47  1  0  0  0  0
 49 51  2  0  0  0  0
 50 49  1  0  0  0  0
 51 53  1  0  0  0  0
 52 51  1  0  0  0  0
 53 55  2  0  0  0  0
 53 54  1  0  0  0  0
 55 56  1  0  0  0  0
 57 44  1  0  0  0  0
 57 66  1  0  0  0  0
 58 57  2  0  0  0  0
 59 58  1  0  0  0  0
 60 58  1  0  0  0  0
 60 62  2  0  0  0  0
 61 60  1  0  0  0  0
 62 64  1  0  0  0  0
 63 62  1  0  0  0  0
 64 66  2  0  0  0  0
 64 65  1  0  0  0  0
 66 67  1  0  0  0  0
M  END
