1,17,18,34
q = -1.0, confidence = 0.25

 54 59  0  0  0  0  0  0  0  0999 V2000
    0.9187   -1.8943   -0.3544 N   0  0  0  0  0  2  0  0  0  0  0  0
    0.2528   -2.5390   -1.3311 N   0  0  0  0  0  0  0  0  0  0  0  0
    0.7176   -3.8252   -1.3702 C   0  0  0  0  0  3  0  0  0  0  0  0
    0.2923   -4.5422   -2.0807 H   0  0  0  0  0  0  0  0  0  0  0  0
    1.7149   -3.9806   -0.3980 C   0  0  0  0  0  0  0  0  0  0  0  0
    2.2910   -4.8872   -0.1890 H   0  0  0  0  0  0  0  0  0  0  0  0
    1.8211   -2.7067    0.2288 C   0  0  0  0  0  0  0  0  0  0  0  0
    2.6643   -2.0094    1.2113 C   0  0  0  0  0  0  0  0  0  0  0  0
    3.6516   -2.6621    1.9726 C   0  0  0  0  0  0  0  0  0  0  0  0
    3.7973   -3.7484    1.8600 H   0  0  0  0  0  0  0  0  0  0  0  0
    4.4497   -1.9355    2.8696 C   0  0  0  0  0  0  0  0  0  0  0  0
    5.2220   -2.4479    3.4627 H   0  0  0  0  0  0  0  0  0  0  0  0
    4.2478   -0.5534    3.0072 C   0  0  0  0  0  0  0  0  0  0  0  0
    4.8639    0.0241    3.7148 H   0  0  0  0  0  0  0  0  0  0  0  0
    3.2595    0.1004    2.2452 C   0  0  0  0  0  0  0  0  0  0  0  0
    3.1276    1.1867    2.3814 H   0  0  0  0  0  0  0  0  0  0  0  0
    2.4467   -0.5819    1.3189 C   0  0  0  0  0  3  0  0  0  0  0  0
   -0.3729    0.4772   -1.4953 N   0  0  0  0  0  2  0  0  0  0  0  0
   -0.8753   -0.4123   -2.3722 N   0  0  0  0  0  0  0  0  0  0  0  0
   -1.4839    0.2915   -3.3718 C   0  0  0  0  0  3  0  0  0  0  0  0
   -2.0101   -0.2366   -4.1735 H   0  0  0  0  0  0  0  0  0  0  0  0
   -1.3260    1.6616   -3.1297 C   0  0  0  0  0  0  0  0  0  0  0  0
   -1.6839    2.4839   -3.7567 H   0  0  0  0  0  0  0  0  0  0  0  0
   -0.5921    1.7383   -1.9150 C   0  0  0  0  0  0  0  0  0  0  0  0
    0.0343    2.7423   -1.0424 C   0  0  0  0  0  0  0  0  0  0  0  0
   -0.1713    4.1264   -1.1923 C   0  0  0  0  0  0  0  0  0  0  0  0
   -0.8279    4.4941   -1.9967 H   0  0  0  0  0  0  0  0  0  0  0  0
    0.4489    5.0344   -0.3204 C   0  0  0  0  0  0  0  0  0  0  0  0
    0.2802    6.1155   -0.4372 H   0  0  0  0  0  0  0  0  0  0  0  0
    1.2896    4.5520    0.6947 C   0  0  0  0  0  0  0  0  0  0  0  0
    1.7890    5.2578    1.3774 H   0  0  0  0  0  0  0  0  0  0  0  0
    1.5025    3.1672    0.8408 C   0  0  0  0  0  0  0  0  0  0  0  0
    2.1836    2.8251    1.6380 H   0  0  0  0  0  0  0  0  0  0  0  0
    0.8832    2.2171    0.0064 C   0  0  0  0  0  3  0  0  0  0  0  0
   -3.2700   -1.2556   -1.0917 N   0  0  0  0  0  0  0  0  0  0  0  0
   -2.1618   -2.0054   -0.9340 N   0  0  0  0  0  0  0  0  0  0  0  0
   -2.2526   -2.8022    0.1751 C   0  0  0  0  0  0  0  0  0  0  0  0
   -1.4395   -3.4758    0.4672 H   0  0  0  0  0  0  0  0  0  0  0  0
   -3.4877   -2.5538    0.7676 C   0  0  0  0  0  0  0  0  0  0  0  0
   -3.8812   -3.0119    1.6807 H   0  0  0  0  0  0  0  0  0  0  0  0
   -4.0919   -1.5672   -0.0664 C   0  0  0  0  0  0  0  0  0  0  0  0
   -5.3765   -0.8697    0.0980 C   0  0  0  0  0  0  0  0  0  0  0  0
   -6.2596   -1.1885    1.1540 C   0  0  0  0  0  0  0  0  0  0  0  0
   -5.9965   -1.9904    1.8601 H   0  0  0  0  0  0  0  0  0  0  0  0
   -7.4703   -0.4992    1.3111 C   0  0  0  0  0  0  0  0  0  0  0  0
   -8.1446   -0.7651    2.1399 H   0  0  0  0  0  0  0  0  0  0  0  0
   -7.8249    0.5234    0.4168 C   0  0  0  0  0  0  0  0  0  0  0  0
   -8.7756    1.0641    0.5406 H   0  0  0  0  0  0  0  0  0  0  0  0
   -6.9546    0.8488   -0.6382 C   0  0  0  0  0  0  0  0  0  0  0  0
   -7.2236    1.6488   -1.3455 H   0  0  0  0  0  0  0  0  0  0  0  0
   -5.7452    0.1624   -0.7971 C   0  0  0  0  0  0  0  0  0  0  0  0
   -5.0546    0.4086   -1.6167 H   0  0  0  0  0  0  0  0  0  0  0  0
   -1.0295   -1.9234   -1.9962 B   0  0  2  0  0  0  0  0  0  0  0  0
   -1.2829   -2.5584   -3.0139 H   0  0  0  0  0  0  0  0  0  0  0  0
  1  7  1  0  0  0  0
  2  1  1  0  0  0  0
  3  2  1  0  0  0  0
  3  5  1  0  0  0  0
  4  3  1  0  0  0  0
  5  6  1  0  0  0  0
  5  7  2  0  0  0  0
  7  8  1  0  0  0  0
  8 17  2  0  0  0  0
  8  9  1  0  0  0  0
  9 11  2  0  0  0  0
 10  9  1  0  0  0  0
 11 13  1  0  0  0  0
 11 12  1  0  0  0  0
 13 14  1  0  0  0  0
 15 16  1  0  0  0  0
 15 13  2  0  0  0  0
 17 15  1  0  0  0  0
 19 53  1  0  0  0  0
 19 18  1  0  0  0  0
 20 22  1  0  0  0  0
 20 19  1  0  0  0  0
 21 20  1  0  0  0  0
 22 24  2  0  0  0  0
 23 22  1  0  0  0  0
 24 18  1  0  0  0  0
 24 25  1  0  0  0  0
 25 34  1  0  0  0  0
 26 25  2  0  0  0  0
 26 28  1  0  0  0  0
 27 26  1  0  0  0  0
 28 30  2  0  0  0  0
 29 28  1  0  0  0  0
 30 32  1  0  0  0  0
 30 31  1  0  0  0  0
 32 33  1  0  0  0  0
 34 32  2  0  0  0  0
 35 36  1  0  0  0  0
 35 41  2  0  0  0  0
 36 37  1  0  0  0  0
 37 38  1  0  0  0  0
 37 39  2  0  0  0  0
 39 40  1  0  0  0  0
 41 42  1  0  0  0  0
 41 39  1  0  0  0  0
 42 43  1  0  0  0  0
 43 45  2  0  0  0  0
 43 44  1  0  0  0  0
 45 46  1  0  0  0  0
 47 48  1  0  0  0  0
 47 45  1  0  0  0  0
 49 47  2  0  0  0  0
 50 49  1  0  0  0  0
 51 49  1  0  0  0  0
 51 42  2  0  0  0  0
 52 51  1  0  0  0  0
 53 54  1  6  0  0  0
 53  2  1  0  0  0  0
 53 36  1  0  0  0  0
M  END
