3,4,15,24
q = 0.0, confidence = 0.666

 44 47  0  0  1  0  0  0  0  0999 V2000
    3.3024   -0.0567   -0.7514 O   0  0  0  0  0  0  0  0  0  0  0  0
   -0.1763    3.2973    0.3162 O   0  0  0  0  0  0  0  0  0  0  0  0
    1.7309   -1.3939    0.3636 N   0  0  0  0  0  2  0  0  0  0  0  0
   -1.5135   -1.4128   -0.1523 N   0  0  0  0  0  2  0  0  0  0  0  0
   -2.7341   -0.7965   -0.0474 N   0  0  0  0  0  0  0  0  0  0  0  0
    1.5078   -2.5007    1.1234 C   0  0  0  0  0  3  0  0  0  0  0  0
    0.4852   -2.5948    1.5158 H   0  0  0  0  0  0  0  0  0  0  0  0
    2.4851   -3.4553    1.3828 C   0  0  0  0  0  0  0  0  0  0  0  0
    2.2438   -4.3315    1.9999 H   0  0  0  0  0  0  0  0  0  0  0  0
    3.7701   -3.2655    0.8343 C   0  0  0  0  0  0  0  0  0  0  0  0
    4.5697   -4.0017    1.0047 H   0  0  0  0  0  0  0  0  0  0  0  0
    4.0246   -2.1122    0.0990 C   0  0  0  0  0  0  0  0  0  0  0  0
    5.0121   -1.8812   -0.3222 H   0  0  0  0  0  0  0  0  0  0  0  0
    2.9848   -1.1700   -0.0874 C   0  0  0  0  0  0  0  0  0  0  0  0
    1.4185    1.4531   -0.1457 C   0  0  0  0  0  2  0  0  0  0  0  0
    2.7596    1.2245   -0.5342 C   0  0  2  0  0  3  0  0  0  0  0  0
    3.6947    2.2383   -0.7904 C   0  0  0  0  0  0  0  0  0  0  0  0
    4.7124    1.9578   -1.0950 H   0  0  0  0  0  0  0  0  0  0  0  0
    3.3003    3.5739   -0.6462 C   0  0  0  0  0  0  0  0  0  0  0  0
    4.0171    4.3864   -0.8353 H   0  0  0  0  0  0  0  0  0  0  0  0
    1.9884    3.8670   -0.2671 C   0  0  0  0  0  0  0  0  0  0  0  0
    1.6352    4.9018   -0.1553 H   0  0  0  0  0  0  0  0  0  0  0  0
    1.0671    2.8254   -0.0327 C   0  0  0  0  0  0  0  0  0  0  0  0
   -1.4193    1.1970    0.1162 C   0  0  0  0  0  3  0  0  0  0  0  0
   -1.3381    2.5813    0.3504 C   0  0  0  0  0  0  0  0  0  0  0  0
   -3.8594    1.3427    0.5413 C   0  0  0  0  0  0  0  0  0  0  0  0
   -4.8371    0.8664    0.6614 H   0  0  0  0  0  0  0  0  0  0  0  0
   -2.7101    0.6070    0.2063 C   0  0  0  0  0  0  0  0  0  0  0  0
   -3.7437   -1.6517   -0.4267 C   0  0  2  0  0  3  0  0  0  0  0  0
   -3.1271   -2.8519   -0.7812 C   0  0  0  0  0  0  0  0  0  0  0  0
   -3.6316   -3.7542   -1.1421 H   0  0  0  0  0  0  0  0  0  0  0  0
   -1.7360   -2.6611   -0.6172 C   0  0  0  0  0  0  0  0  0  0  0  0
   -5.1940   -1.3097   -0.4876 C   0  0  0  0  0  0  0  0  0  0  0  0
   -5.6298   -1.1287    0.5167 H   0  0  0  0  0  0  0  0  0  0  0  0
   -5.7428   -2.1536   -0.9446 H   0  0  0  0  0  0  0  0  0  0  0  0
   -5.3786   -0.4030   -1.0990 H   0  0  0  0  0  0  0  0  0  0  0  0
   -0.6389   -3.6207   -0.9485 C   0  0  0  0  0  0  0  0  0  0  0  0
    0.2733   -3.0835   -1.2681 H   0  0  0  0  0  0  0  0  0  0  0  0
   -0.9610   -4.2837   -1.7743 H   0  0  0  0  0  0  0  0  0  0  0  0
   -0.3685   -4.2719   -0.0920 H   0  0  0  0  0  0  0  0  0  0  0  0
   -2.4829    3.3473    0.6606 C   0  0  0  0  0  0  0  0  0  0  0  0
   -2.3602    4.4263    0.8315 H   0  0  0  0  0  0  0  0  0  0  0  0
   -3.7291    2.7251    0.7597 C   0  0  0  0  0  0  0  0  0  0  0  0
   -4.6184    3.3180    1.0194 H   0  0  0  0  0  0  0  0  0  0  0  0
  1 14  1  0  0  0  0
  2 25  1  0  0  0  0
  3  6  1  0  0  0  0
  4  5  1  0  0  0  0
  5 28  1  0  0  0  0
  6  8  1  0  0  0  0
  6  7  1  0  0  0  0
  8  9  1  0  0  0  0
 10 11  1  0  0  0  0
 10  8  2  0  0  0  0
 12 10  1  0  0  0  0
 13 12  1  0  0  0  0
 14 12  2  0  0  0  0
 14  3  1  0  0  0  0
 15 23  1  0  0  0  0
 16  1  1  6  0  0  0
 16 15  1  0  0  0  0
 17 19  2  0  0  0  0
 17 16  1  0  0  0  0
 18 17  1  0  0  0  0
 19 21  1  0  0  0  0
 20 19  1  0  0  0  0
 21 22  1  0  0  0  0
 21 23  2  0  0  0  0
 23  2  1  0  0  0  0
 24 28  2  0  0  0  0
 24 25  1  0  0  0  0
 25 41  2  0  0  0  0
 26 27  1  0  0  0  0
 26 43  2  0  0  0  0
 28 26  1  0  0  0  0
 29 33  1  6  0  0  0
 29  5  1  0  0  0  0
 30 32  2  0  0  0  0
 30 29  1  0  0  0  0
 31 30  1  0  0  0  0
 32  4  1  0  0  0  0
 33 34  1  0  0  0  0
 35 33  1  0  0  0  0
 36 33  1  0  0  0  0
 37 32  1  0  0  0  0
 37 40  1  0  0  0  0
 38 37  1  0  0  0  0
 39 37  1  0  0  0  0
 41 43  1  0  0  0  0
 41 42  1  0  0  0  0
 43 44  1  0  0  0  0
M  END
