3,4,21,41
q = -2.0, confidence = 0.844

 62 64  0  0  0  0  0  0  0  0999 V2000
    1.6246   -3.3199    0.0700 N   0  0  0  0  0  0  0  0  0  0  0  0
   -2.5581    3.9845    0.1802 O   0  0  0  0  0  0  0  0  0  0  0  0
   -2.0686    1.7001   -0.0504 N   0  0  0  0  0  2  0  0  0  0  0  0
    0.4045   -1.4624   -0.4323 C   0  0  0  0  0  3  0  0  0  0  0  0
    1.7998    3.4974   -0.3977 C   0  0  0  0  0  3  0  0  0  0  0  0
    1.9044    4.5790   -0.5055 H   0  0  0  0  0  0  0  0  0  0  0  0
    2.7753    2.6254   -0.0660 N   0  0  0  0  0  0  0  0  0  0  0  0
   -2.5899   -2.1503   -0.9396 C   0  0  0  0  0  0  0  0  0  0  0  0
    0.6089   -3.7057   -0.7323 C   0  0  0  0  0  3  0  0  0  0  0  0
    0.4033   -4.7211   -1.0773 H   0  0  0  0  0  0  0  0  0  0  0  0
   -0.1170   -2.6143   -1.0418 N   0  0  0  0  0  0  0  0  0  0  0  0
   -3.5800   -2.8990   -0.9321 O   0  0  0  0  0  0  0  0  0  0  0  0
   -4.2622    1.9148    1.1445 C   0  0  0  0  0  0  0  0  0  0  0  0
   -4.1040    2.9926    1.2579 H   0  0  0  0  0  0  0  0  0  0  0  0
   -1.8528    3.0284   -0.1834 C   0  0  0  0  0  0  0  0  0  0  0  0
    2.4742   -5.6394    0.2155 C   0  0  0  0  0  0  0  0  0  0  0  0
    1.4929   -6.0456    0.5310 H   0  0  0  0  0  0  0  0  0  0  0  0
    3.2586   -6.2721    0.6725 H   0  0  0  0  0  0  0  0  0  0  0  0
    2.5673   -5.7321   -0.8848 H   0  0  0  0  0  0  0  0  0  0  0  0
    0.6619    2.8016   -0.5873 N   0  0  0  0  0  0  0  0  0  0  0  0
    0.8592    1.4283   -0.3653 C   0  0  0  0  0  3  0  0  0  0  0  0
    1.5113   -1.9425    0.2617 C   0  0  0  0  0  0  0  0  0  0  0  0
    2.1891   -1.4155    0.9367 H   0  0  0  0  0  0  0  0  0  0  0  0
   -1.3687   -2.6193   -1.7859 C   0  0  0  0  0  0  0  0  0  0  0  0
   -1.5844   -3.6488   -2.1220 H   0  0  0  0  0  0  0  0  0  0  0  0
   -1.2513   -1.9539   -2.6650 H   0  0  0  0  0  0  0  0  0  0  0  0
   -3.2643    1.1623    0.4856 C   0  0  0  0  0  0  0  0  0  0  0  0
   -4.6432   -0.8509    0.7802 C   0  0  0  0  0  0  0  0  0  0  0  0
   -4.7835   -1.9230    0.6030 H   0  0  0  0  0  0  0  0  0  0  0  0
    4.1938    2.9447    0.2642 C   0  0  0  0  0  0  0  0  0  0  0  0
   -5.4250    1.2912    1.6218 C   0  0  0  0  0  0  0  0  0  0  0  0
   -6.1864    1.8960    2.1391 H   0  0  0  0  0  0  0  0  0  0  0  0
    2.6672   -4.1915    0.6832 C   0  0  0  0  0  0  0  0  0  0  0  0
    2.5188   -4.1121    2.2132 C   0  0  0  0  0  0  0  0  0  0  0  0
    2.6636   -3.0787    2.5831 H   0  0  0  0  0  0  0  0  0  0  0  0
    3.2749   -4.7589    2.6999 H   0  0  0  0  0  0  0  0  0  0  0  0
    1.5119   -4.4505    2.5270 H   0  0  0  0  0  0  0  0  0  0  0  0
   -0.5986    3.3933   -1.0218 C   0  0  0  0  0  0  0  0  0  0  0  0
   -0.7765    3.0810   -2.0721 H   0  0  0  0  0  0  0  0  0  0  0  0
   -0.5029    4.4929   -0.9815 H   0  0  0  0  0  0  0  0  0  0  0  0
   -2.4254   -0.9345   -0.3704 N   0  0  0  0  0  2  0  0  0  0  0  0
   -3.4596   -0.2465    0.3049 C   0  0  0  0  0  0  0  0  0  0  0  0
    2.2124    1.3504   -0.0489 C   0  0  0  0  0  0  0  0  0  0  0  0
    2.8224    0.4738    0.1750 H   0  0  0  0  0  0  0  0  0  0  0  0
   -5.6162   -0.0855    1.4401 C   0  0  0  0  0  0  0  0  0  0  0  0
   -6.5299   -0.5760    1.8110 H   0  0  0  0  0  0  0  0  0  0  0  0
    4.0468   -3.6778    0.2351 C   0  0  0  0  0  0  0  0  0  0  0  0
    4.1389   -3.7098   -0.8685 H   0  0  0  0  0  0  0  0  0  0  0  0
    4.8447   -4.3093    0.6725 H   0  0  0  0  0  0  0  0  0  0  0  0
    4.2186   -2.6351    0.5661 H   0  0  0  0  0  0  0  0  0  0  0  0
    4.4576    2.5098    1.7168 C   0  0  0  0  0  0  0  0  0  0  0  0
    3.7820    3.0424    2.4147 H   0  0  0  0  0  0  0  0  0  0  0  0
    5.5043    2.7401    1.9965 H   0  0  0  0  0  0  0  0  0  0  0  0
    4.2990    1.4220    1.8487 H   0  0  0  0  0  0  0  0  0  0  0  0
    4.4339    4.4526    0.1197 C   0  0  0  0  0  0  0  0  0  0  0  0
    4.2477    4.8009   -0.9156 H   0  0  0  0  0  0  0  0  0  0  0  0
    5.4909    4.6732    0.3618 H   0  0  0  0  0  0  0  0  0  0  0  0
    3.8027    5.0381    0.8172 H   0  0  0  0  0  0  0  0  0  0  0  0
    5.0986    2.1754   -0.7143 C   0  0  0  0  0  0  0  0  0  0  0  0
    4.9538    1.0811   -0.6283 H   0  0  0  0  0  0  0  0  0  0  0  0
    6.1618    2.3967   -0.4971 H   0  0  0  0  0  0  0  0  0  0  0  0
    4.8855    2.4697   -1.7608 H   0  0  0  0  0  0  0  0  0  0  0  0
  1 22  1  0  0  0  0
  1 33  1  0  0  0  0
  3 27  1  0  0  0  0
  4 22  2  0  0  0  0
  5  7  1  0  0  0  0
  6  5  1  0  0  0  0
  7 43  1  0  0  0  0
  7 30  1  0  0  0  0
  8 12  2  0  0  0  0
  8 41  1  0  0  0  0
  9  1  1  0  0  0  0
 10  9  1  0  0  0  0
 11  9  1  0  0  0  0
 11  4  1  0  0  0  0
 13 14  1  0  0  0  0
 13 31  1  0  0  0  0
 15  3  1  0  0  0  0
 15  2  2  0  0  0  0
 16 17  1  0  0  0  0
 16 18  1  0  0  0  0
 16 33  1  0  0  0  0
 19 16  1  0  0  0  0
 20  5  1  0  0  0  0
 20 21  1  0  0  0  0
 21 43  2  0  0  0  0
 22 23  1  0  0  0  0
 24 11  1  0  0  0  0
 24  8  1  0  0  0  0
 25 24  1  0  0  0  0
 26 24  1  0  0  0  0
 27 13  2  0  0  0  0
 28 45  1  0  0  0  0
 29 28  1  0  0  0  0
 30 51  1  0  0  0  0
 31 32  1  0  0  0  0
 33 34  1  0  0  0  0
 34 37  1  0  0  0  0
 34 35  1  0  0  0  0
 34 36  1  0  0  0  0
 38 40  1  0  0  0  0
 38 20  1  0  0  0  0
 38 15  1  0  0  0  0
 39 38  1  0  0  0  0
 41 42  1  0  0  0  0
 42 27  1  0  0  0  0
 42 28  2  0  0  0  0
 43 44  1  0  0  0  0
 45 31  2  0  0  0  0
 45 46  1  0  0  0  0
 47 50  1  0  0  0  0
 47 49  1  0  0  0  0
 47 33  1  0  0  0  0
 48 47  1  0  0  0  0
 51 54  1  0  0  0  0
 51 53  1  0  0  0  0
 51 52  1  0  0  0  0
 55 30  1  0  0  0  0
 55 57  1  0  0  0  0
 55 58  1  0  0  0  0
 56 55  1  0  0  0  0
 59 60  1  0  0  0  0
 59 61  1  0  0  0  0
 59 30  1  0  0  0  0
 62 59  1  0  0  0  0
M  END
