23,27,28
q = -2.0, confidence = 0.826

 32 33  0  0  0  0  0  0  0  0999 V2000
    1.9457    0.2444   -0.0827 C   0  0  0  0  0  0  0  0  0  0  0  0
    3.4017    0.5061   -0.0362 C   0  0  0  0  0  0  0  0  0  0  0  0
    4.3136   -0.5160    0.3165 C   0  0  0  0  0  0  0  0  0  0  0  0
    5.6972   -0.2867    0.3594 C   0  0  0  0  0  0  0  0  0  0  0  0
    6.2015    0.9843    0.0357 C   0  0  0  0  0  0  0  0  0  0  0  0
    5.3195    2.0180   -0.3215 C   0  0  0  0  0  0  0  0  0  0  0  0
    3.9365    1.7769   -0.3579 C   0  0  0  0  0  0  0  0  0  0  0  0
   -1.1455    1.5998    0.2828 C   0  0  0  0  0  3  0  0  0  0  0  0
   -0.8770    2.6493    0.5056 H   0  0  0  0  0  0  0  0  0  0  0  0
   -2.5434    1.2413    0.1965 C   0  0  0  0  0  0  0  0  0  0  0  0
   -2.9529   -0.1422    0.1295 C   0  0  0  0  0  0  0  0  0  0  0  0
   -4.3561   -0.4108    0.0676 C   0  0  0  0  0  0  0  0  0  0  0  0
   -5.3085    0.6064    0.1099 C   0  0  0  0  0  0  0  0  0  0  0  0
   -6.3791    0.3662    0.0877 H   0  0  0  0  0  0  0  0  0  0  0  0
   -4.8736    1.9345    0.1810 C   0  0  0  0  0  0  0  0  0  0  0  0
   -3.5161    2.2590    0.2290 C   0  0  0  0  0  0  0  0  0  0  0  0
   -3.2288    3.3182    0.2903 H   0  0  0  0  0  0  0  0  0  0  0  0
    3.8883   -1.7358    0.6597 F   0  0  0  0  0  0  0  0  0  0  0  0
    6.5325   -1.2644    0.7133 F   0  0  0  0  0  0  0  0  0  0  0  0
    7.5121    1.2093    0.0719 F   0  0  0  0  0  0  0  0  0  0  0  0
    5.8012    3.2198   -0.6404 F   0  0  0  0  0  0  0  0  0  0  0  0
    3.1522    2.7823   -0.7368 F   0  0  0  0  0  0  0  0  0  0  0  0
   -0.1664    0.7534    0.0938 N   0  0  0  0  0  2  0  0  0  0  0  0
    1.1041    1.2149    0.2293 N   0  0  0  0  0  0  0  0  0  0  0  0
   -4.8527   -1.8018   -0.0435 N   0  0  0  0  0  0  0  0  0  0  0  0
   -5.8776    3.0196    0.2148 N   0  0  0  0  0  0  0  0  0  0  0  0
    1.5481   -0.9543   -0.4259 O   0  5  0  0  0  0  0  0  0  0  0  0
   -2.0829   -1.1104    0.1969 O   0  5  0  0  0  0  0  0  0  0  0  0
   -4.1221   -2.6313   -0.5805 O   0  0  0  0  0  0  0  0  0  0  0  0
   -5.9827   -2.0210    0.3940 O   0  0  0  0  0  0  0  0  0  0  0  0
   -7.0626    2.6927    0.1688 O   0  0  0  0  0  0  0  0  0  0  0  0
   -5.4558    4.1742    0.2884 O   0  0  0  0  0  0  0  0  0  0  0  0
  1  2  1  0  0  0  0
  1 24  2  0  0  0  0
  2  3  1  0  0  0  0
  3  4  2  0  0  0  0
  3 18  1  0  0  0  0
  4 19  1  0  0  0  0
  5 20  1  0  0  0  0
  5  4  1  0  0  0  0
  6  5  2  0  0  0  0
  7  6  1  0  0  0  0
  7  2  2  0  0  0  0
  8  9  1  0  0  0  0
 10 16  1  0  0  0  0
 10  8  1  0  0  0  0
 11 10  2  0  0  0  0
 11 28  1  0  0  0  0
 12 13  2  0  0  0  0
 12 11  1  0  0  0  0
 13 15  1  0  0  0  0
 14 13  1  0  0  0  0
 15 26  1  0  0  0  0
 15 16  2  0  0  0  0
 16 17  1  0  0  0  0
 21  6  1  0  0  0  0
 22  7  1  0  0  0  0
 23 24  1  0  0  0  0
 23  8  1  0  0  0  0
 25 12  1  0  0  0  0
 25 30  2  0  0  0  0
 26 32  2  0  0  0  0
 27  1  1  0  0  0  0
 29 25  2  0  0  0  0
 31 26  2  0  0  0  0
M  CHG  2  27  -1  28  -1
M  END
