2,3,4
q = -1.0, confidence = 0.108

 28 29  0  0  0  0  0  0  0  0999 V2000
   -1.0064    1.3333    0.1067 N   0  0  0  0  0  0  0  0  0  0  0  0
   -1.4463   -0.9473   -0.0211 O   0  5  0  0  0  0  0  0  0  0  0  0
    2.3515   -0.8791    0.2883 O   0  5  0  0  0  0  0  0  0  0  0  0
    0.2735    0.8929    0.0598 N   0  0  0  0  0  2  0  0  0  0  0  0
    1.2238    1.8103    0.0609 C   0  0  0  0  0  3  0  0  0  0  0  0
    0.9006    2.8684    0.0797 H   0  0  0  0  0  0  0  0  0  0  0  0
   -1.8342    0.3048    0.0349 C   0  0  0  0  0  0  0  0  0  0  0  0
    3.5386    2.6057   -0.0991 C   0  0  0  0  0  0  0  0  0  0  0  0
    3.1355    3.6283   -0.1585 H   0  0  0  0  0  0  0  0  0  0  0  0
   -5.1534    2.1003    0.0789 C   0  0  0  0  0  3  0  0  0  0  0  0
   -5.6200    3.0920    0.1556 H   0  0  0  0  0  0  0  0  0  0  0  0
   -3.2752    0.5753    0.0080 C   0  0  0  0  0  0  0  0  0  0  0  0
   -5.9949    1.0360   -0.0629 N   0  0  0  0  0  0  0  0  0  0  0  0
   -3.7854    1.8939    0.1168 C   0  0  0  0  0  0  0  0  0  0  0  0
   -3.0915    2.7380    0.2269 H   0  0  0  0  0  0  0  0  0  0  0  0
    2.6217    1.5193    0.0193 C   0  0  0  0  0  0  0  0  0  0  0  0
    4.9088    2.3863   -0.1542 C   0  0  0  0  0  0  0  0  0  0  0  0
    5.6037    3.2315   -0.2558 H   0  0  0  0  0  0  0  0  0  0  0  0
   -4.1866   -0.5019   -0.1357 C   0  0  0  0  0  0  0  0  0  0  0  0
   -3.8065   -1.5289   -0.2227 H   0  0  0  0  0  0  0  0  0  0  0  0
    3.1434    0.1797    0.1068 C   0  0  0  0  0  0  0  0  0  0  0  0
    5.4032    1.0634   -0.0805 C   0  0  0  0  0  0  0  0  0  0  0  0
    6.4881    0.8835   -0.1247 H   0  0  0  0  0  0  0  0  0  0  0  0
    4.5373   -0.0251    0.0520 C   0  0  0  0  0  0  0  0  0  0  0  0
    4.9128   -1.0558    0.1182 H   0  0  0  0  0  0  0  0  0  0  0  0
   -5.5474   -0.2442   -0.1704 C   0  0  0  0  0  0  0  0  0  0  0  0
   -6.3100   -1.0274   -0.2833 H   0  0  0  0  0  0  0  0  0  0  0  0
   -7.0061    1.2086   -0.0908 H   0  0  0  0  0  0  0  0  0  0  0  0
  2  7  1  0  0  0  0
  4  5  1  0  0  0  0
  4  1  1  0  0  0  0
  5  6  1  0  0  0  0
  7  1  2  0  0  0  0
  8 16  1  0  0  0  0
  9  8  1  0  0  0  0
 10 14  1  0  0  0  0
 10 11  1  0  0  0  0
 12  7  1  0  0  0  0
 12 14  2  0  0  0  0
 13 10  1  0  0  0  0
 14 15  1  0  0  0  0
 16  5  1  0  0  0  0
 16 21  2  0  0  0  0
 17  8  2  0  0  0  0
 17 22  1  0  0  0  0
 18 17  1  0  0  0  0
 19 12  1  0  0  0  0
 20 19  1  0  0  0  0
 21  3  1  0  0  0  0
 22 24  2  0  0  0  0
 23 22  1  0  0  0  0
 24 21  1  0  0  0  0
 24 25  1  0  0  0  0
 26 19  2  0  0  0  0
 26 13  1  0  0  0  0
 27 26  1  0  0  0  0
 28 13  1  0  0  0  0
M  CHG  2   2  -1   3  -1
M  END
