61,62,63
q = -2.0, confidence = 0.956

 63 67  0  0  1  0  0  0  0  0999 V2000
    2.9575   -0.3458   -0.1103 C   0  0  0  0  0  0  0  0  0  0  0  0
    2.4507   -1.6918   -0.6899 C   0  0  0  0  0  0  0  0  0  0  0  0
    2.1156   -1.4736   -1.7255 H   0  0  0  0  0  0  0  0  0  0  0  0
    3.2919   -2.4054   -0.7631 H   0  0  0  0  0  0  0  0  0  0  0  0
    1.3095   -2.3442    0.0353 C   0  0  2  0  0  3  0  0  0  0  0  0
    1.3928   -3.7075    0.3622 C   0  0  0  0  0  0  0  0  0  0  0  0
    2.3058   -4.2565    0.0925 H   0  0  0  0  0  0  0  0  0  0  0  0
    0.3334   -4.3438    1.0099 C   0  0  0  0  0  0  0  0  0  0  0  0
    0.3856   -5.4116    1.2680 H   0  0  0  0  0  0  0  0  0  0  0  0
   -0.7930   -3.5818    1.3246 C   0  0  0  0  0  0  0  0  0  0  0  0
   -1.6516   -4.0280    1.8454 H   0  0  0  0  0  0  0  0  0  0  0  0
   -0.8478   -2.2204    0.9866 C   0  0  0  0  0  0  0  0  0  0  0  0
   -2.0486   -1.4126    1.3876 C   0  0  0  0  0  0  0  0  0  0  0  0
   -1.7168   -0.6725    2.1460 H   0  0  0  0  0  0  0  0  0  0  0  0
   -2.7875   -2.0757    1.8735 H   0  0  0  0  0  0  0  0  0  0  0  0
   -2.7349   -0.5983    0.2582 C   0  0  0  0  0  0  0  0  0  0  0  0
    4.1273    0.1173   -0.9981 C   0  0  0  0  0  0  0  0  0  0  0  0
    5.4716    0.0190   -0.5996 C   0  0  0  0  0  0  0  0  0  0  0  0
    5.7172   -0.3698    0.3996 H   0  0  0  0  0  0  0  0  0  0  0  0
    6.4990    0.4262   -1.4668 C   0  0  0  0  0  0  0  0  0  0  0  0
    7.5482    0.3470   -1.1427 H   0  0  0  0  0  0  0  0  0  0  0  0
    6.1911    0.9393   -2.7356 C   0  0  0  0  0  0  0  0  0  0  0  0
    6.9972    1.2613   -3.4127 H   0  0  0  0  0  0  0  0  0  0  0  0
    4.8481    1.0418   -3.1362 C   0  0  0  0  0  0  0  0  0  0  0  0
    4.5977    1.4444   -4.1299 H   0  0  0  0  0  0  0  0  0  0  0  0
    3.8211    0.6324   -2.2750 C   0  0  0  0  0  0  0  0  0  0  0  0
    2.7659    0.7087   -2.5838 H   0  0  0  0  0  0  0  0  0  0  0  0
    3.3577   -0.4195    1.3666 C   0  0  0  0  0  0  0  0  0  0  0  0
    3.3343    0.7650    2.1288 C   0  0  0  0  0  0  0  0  0  0  0  0
    2.9883    1.6922    1.6524 H   0  0  0  0  0  0  0  0  0  0  0  0
    3.7237    0.7529    3.4743 C   0  0  0  0  0  0  0  0  0  0  0  0
    3.6856    1.6844    4.0594 H   0  0  0  0  0  0  0  0  0  0  0  0
    4.1497   -0.4408    4.0782 C   0  0  0  0  0  0  0  0  0  0  0  0
    4.4536   -0.4505    5.1361 H   0  0  0  0  0  0  0  0  0  0  0  0
    4.1826   -1.6232    3.3245 C   0  0  0  0  0  0  0  0  0  0  0  0
    4.5179   -2.5649    3.7858 H   0  0  0  0  0  0  0  0  0  0  0  0
    3.7864   -1.6122    1.9770 C   0  0  0  0  0  0  0  0  0  0  0  0
    3.8258   -2.5485    1.4030 H   0  0  0  0  0  0  0  0  0  0  0  0
   -3.1459   -1.4602   -0.9397 C   0  0  0  0  0  0  0  0  0  0  0  0
   -3.5346   -2.8058   -0.8004 C   0  0  0  0  0  0  0  0  0  0  0  0
   -3.5334   -3.2846    0.1893 H   0  0  0  0  0  0  0  0  0  0  0  0
   -3.9435   -3.5517   -1.9173 C   0  0  0  0  0  0  0  0  0  0  0  0
   -4.2457   -4.6026   -1.7900 H   0  0  0  0  0  0  0  0  0  0  0  0
   -3.9643   -2.9609   -3.1897 C   0  0  0  0  0  0  0  0  0  0  0  0
   -4.2773   -3.5474   -4.0670 H   0  0  0  0  0  0  0  0  0  0  0  0
   -3.5799   -1.6189   -3.3356 C   0  0  0  0  0  0  0  0  0  0  0  0
   -3.5828   -1.1483   -4.3305 H   0  0  0  0  0  0  0  0  0  0  0  0
   -3.1779   -0.8733   -2.2191 C   0  0  0  0  0  0  0  0  0  0  0  0
   -2.8629    0.1732   -2.3273 H   0  0  0  0  0  0  0  0  0  0  0  0
   -3.9393    0.1403    0.8760 C   0  0  0  0  0  0  0  0  0  0  0  0
   -5.2742   -0.1709    0.5653 C   0  0  0  0  0  0  0  0  0  0  0  0
   -5.4928   -0.9745   -0.1528 H   0  0  0  0  0  0  0  0  0  0  0  0
   -6.3282    0.5467    1.1564 C   0  0  0  0  0  0  0  0  0  0  0  0
   -7.3685    0.2936    0.9003 H   0  0  0  0  0  0  0  0  0  0  0  0
   -6.0596    1.5841    2.0609 C   0  0  0  0  0  0  0  0  0  0  0  0
   -6.8868    2.1459    2.5214 H   0  0  0  0  0  0  0  0  0  0  0  0
   -4.7267    1.8994    2.3772 C   0  0  0  0  0  0  0  0  0  0  0  0
   -4.5048    2.7067    3.0927 H   0  0  0  0  0  0  0  0  0  0  0  0
   -3.6742    1.1826    1.7912 C   0  0  0  0  0  0  0  0  0  0  0  0
   -2.6273    1.4242    2.0424 H   0  0  0  0  0  0  0  0  0  0  0  0
    0.1941   -1.6142    0.3388 N   0  0  0  0  0  2  0  0  0  0  0  0
    1.9459    0.6424   -0.2579 O   0  0  0  0  0  1  0  0  0  0  0  0
   -1.8477    0.4192   -0.1786 O   0  0  0  0  0  1  0  0  0  0  0  0
  1 28  1  0  0  0  0
  2  1  1  0  0  0  0
  3  2  1  0  0  0  0
  4  2  1  0  0  0  0
  5  2  1  6  0  0  0
  5 61  1  0  0  0  0
  5  6  1  0  0  0  0
  6  8  2  0  0  0  0
  7  6  1  0  0  0  0
  8  9  1  0  0  0  0
  8 10  1  0  0  0  0
 10 11  1  0  0  0  0
 12 10  2  0  0  0  0
 12 13  1  0  0  0  0
 13 15  1  0  0  0  0
 13 14  1  0  0  0  0
 16 50  1  0  0  0  0
 16 13  1  0  0  0  0
 17 18  1  0  0  0  0
 17  1  1  0  0  0  0
 18 19  1  0  0  0  0
 20 21  1  0  0  0  0
 20 18  2  0  0  0  0
 22 20  1  0  0  0  0
 23 22  1  0  0  0  0
 24 22  2  0  0  0  0
 24 26  1  0  0  0  0
 25 24  1  0  0  0  0
 26 17  2  0  0  0  0
 27 26  1  0  0  0  0
 28 37  2  0  0  0  0
 28 29  1  0  0  0  0
 29 31  2  0  0  0  0
 30 29  1  0  0  0  0
 31 32  1  0  0  0  0
 31 33  1  0  0  0  0
 33 34  1  0  0  0  0
 35 36  1  0  0  0  0
 35 33  2  0  0  0  0
 37 35  1  0  0  0  0
 38 37  1  0  0  0  0
 39 40  1  0  0  0  0
 39 16  1  0  0  0  0
 40 41  1  0  0  0  0
 42 43  1  0  0  0  0
 42 40  2  0  0  0  0
 44 42  1  0  0  0  0
 45 44  1  0  0  0  0
 46 44  2  0  0  0  0
 46 48  1  0  0  0  0
 47 46  1  0  0  0  0
 48 39  2  0  0  0  0
 49 48  1  0  0  0  0
 50 59  1  0  0  0  0
 51 50  2  0  0  0  0
 51 53  1  0  0  0  0
 52 51  1  0  0  0  0
 53 55  2  0  0  0  0
 54 53  1  0  0  0  0
 55 57  1  0  0  0  0
 55 56  1  0  0  0  0
 57 58  1  0  0  0  0
 59 60  1  0  0  0  0
 59 57  2  0  0  0  0
 61 12  1  0  0  0  0
 62  1  1  0  0  0  0
 63 16  1  0  0  0  0
M  END
