1,2,3
q = -2.0, confidence = 0.904

 35 35  0  0  1  0  0  0  0  0999 V2000
   -0.3157    0.1679    0.1791 N   0  0  0  0  0  0  0  0  0  0  0  0
    2.0005    1.4505    0.5976 O   0  0  0  0  0  1  0  0  0  0  0  0
    1.6538   -1.6175    0.4909 O   0  0  0  0  0  1  0  0  0  0  0  0
   -1.1379   -0.1056   -1.0255 C   0  0  0  0  0  0  0  0  0  0  0  0
   -0.8448   -1.1009   -1.4114 H   0  0  0  0  0  0  0  0  0  0  0  0
   -0.8204    0.6214   -1.7972 H   0  0  0  0  0  0  0  0  0  0  0  0
   -2.6342   -0.0538   -0.7952 C   0  0  0  0  0  0  0  0  0  0  0  0
   -3.3569   -1.2300   -0.5050 C   0  0  0  0  0  0  0  0  0  0  0  0
   -2.8303   -2.1981   -0.5013 H   0  0  0  0  0  0  0  0  0  0  0  0
   -4.7346   -1.1863   -0.2416 C   0  0  0  0  0  0  0  0  0  0  0  0
   -5.2806   -2.1162   -0.0209 H   0  0  0  0  0  0  0  0  0  0  0  0
   -5.4157    0.0404   -0.2687 C   0  0  0  0  0  0  0  0  0  0  0  0
   -6.4967    0.0779   -0.0653 H   0  0  0  0  0  0  0  0  0  0  0  0
   -4.7132    1.2182   -0.5706 C   0  0  0  0  0  0  0  0  0  0  0  0
   -5.2442    2.1816   -0.6106 H   0  0  0  0  0  0  0  0  0  0  0  0
   -3.3362    1.1692   -0.8331 C   0  0  0  0  0  0  0  0  0  0  0  0
   -2.7971    2.0951   -1.0872 H   0  0  0  0  0  0  0  0  0  0  0  0
   -0.3849    1.5603    0.6362 C   0  0  0  0  0  0  0  0  0  0  0  0
   -1.2721    1.7617    1.2820 H   0  0  0  0  0  0  0  0  0  0  0  0
   -0.4792    2.1958   -0.2679 H   0  0  0  0  0  0  0  0  0  0  0  0
    0.9197    1.9499    1.3461 C   0  0  2  0  0  0  0  0  0  0  0  0
    0.9390    1.4819    2.3634 H   0  0  0  0  0  0  0  0  0  0  0  0
    1.0453    3.4619    1.5168 C   0  0  0  0  0  0  0  0  0  0  0  0
    1.9951    3.7091    2.0284 H   0  0  0  0  0  0  0  0  0  0  0  0
    0.2064    3.8664    2.1192 H   0  0  0  0  0  0  0  0  0  0  0  0
    1.0475    3.9596    0.5258 H   0  0  0  0  0  0  0  0  0  0  0  0
   -0.4619   -0.8436    1.2305 C   0  0  0  0  0  0  0  0  0  0  0  0
   -1.5278   -1.1079    1.4206 H   0  0  0  0  0  0  0  0  0  0  0  0
   -0.0472   -0.4320    2.1728 H   0  0  0  0  0  0  0  0  0  0  0  0
    0.3738   -2.0758    0.8487 C   0  0  2  0  0  0  0  0  0  0  0  0
   -0.0998   -2.5790   -0.0315 H   0  0  0  0  0  0  0  0  0  0  0  0
    0.4785   -3.0891    1.9847 C   0  0  0  0  0  0  0  0  0  0  0  0
    1.1040   -3.9478    1.6741 H   0  0  0  0  0  0  0  0  0  0  0  0
   -0.5234   -3.4687    2.2709 H   0  0  0  0  0  0  0  0  0  0  0  0
    0.9509   -2.6221    2.8725 H   0  0  0  0  0  0  0  0  0  0  0  0
  1 18  1  0  0  0  0
  1 27  1  0  0  0  0
  2 21  1  0  0  0  0
  3 30  1  0  0  0  0
  4  7  1  0  0  0  0
  4  1  1  0  0  0  0
  5  4  1  0  0  0  0
  6  4  1  0  0  0  0
  7  8  1  0  0  0  0
  8  9  1  0  0  0  0
  8 10  2  0  0  0  0
 10 11  1  0  0  0  0
 12 10  1  0  0  0  0
 12 13  1  0  0  0  0
 14 12  2  0  0  0  0
 15 14  1  0  0  0  0
 16  7  2  0  0  0  0
 16 14  1  0  0  0  0
 17 16  1  0  0  0  0
 18 19  1  0  0  0  0
 18 21  1  0  0  0  0
 20 18  1  0  0  0  0
 21 23  1  0  0  0  0
 21 22  1  1  0  0  0
 23 24  1  0  0  0  0
 23 25  1  0  0  0  0
 26 23  1  0  0  0  0
 27 28  1  0  0  0  0
 27 29  1  0  0  0  0
 30 31  1  6  0  0  0
 30 27  1  0  0  0  0
 30 32  1  0  0  0  0
 32 34  1  0  0  0  0
 32 35  1  0  0  0  0
 33 32  1  0  0  0  0
M  END
