8,16,17
q = -1.0, confidence = 0.018

 32 33  0  0  1  0  0  0  0  0999 V2000
   -3.7299    1.9656   -0.3994 N   0  0  0  0  0  0  0  0  0  0  0  0
   -2.5188    2.4785   -0.0788 C   0  0  2  0  0  3  0  0  0  0  0  0
   -1.3490    1.6763   -0.2737 C   0  0  0  0  0  0  0  0  0  0  0  0
   -1.5478    0.3197   -0.7646 C   0  0  0  0  0  0  0  0  0  0  0  0
   -2.8589   -0.1643   -1.0117 C   0  0  0  0  0  0  0  0  0  0  0  0
   -3.9373    0.6977   -0.8457 C   0  0  0  0  0  0  0  0  0  0  0  0
   -2.4073    3.8513    0.4880 C   0  0  0  0  0  0  0  0  0  0  0  0
   -0.2280    2.2136    0.0580 O   0  5  0  0  0  0  0  0  0  0  0  0
   -0.3647   -0.5188   -0.8770 C   0  0  1  0  0  3  0  0  0  0  0  0
   -3.1590   -1.6072   -1.3930 C   0  0  0  0  0  0  0  0  0  0  0  0
   -2.2613   -2.1790   -2.3165 O   0  0  0  0  0  0  0  0  0  0  0  0
    3.0260   -0.8849   -0.2559 C   0  0  0  0  0  0  0  0  0  0  0  0
    1.7506   -1.2490   -1.0600 C   0  0  1  0  0  0  0  0  0  0  0  0
    0.9419   -2.3823   -0.3731 C   0  0  2  0  0  0  0  0  0  0  0  0
    0.8765   -3.6817   -1.1426 C   0  0  0  0  0  0  0  0  0  0  0  0
    0.8184   -0.1335   -1.2604 N   0  0  0  0  0  2  0  0  0  0  0  0
    3.0375    0.2883    0.3467 O   0  5  0  0  0  0  0  0  0  0  0  0
    3.9502   -1.6838   -0.2292 O   0  0  0  0  0  0  0  0  0  0  0  0
   -0.4151   -1.7866   -0.2604 O   0  0  0  0  0  0  0  0  0  0  0  0
   -4.5437    2.5755   -0.2751 H   0  0  0  0  0  0  0  0  0  0  0  0
   -3.3973    4.3128    0.6720 H   0  0  0  0  0  0  0  0  0  0  0  0
   -1.8188    4.5090   -0.1847 H   0  0  0  0  0  0  0  0  0  0  0  0
   -1.8392    3.8090    1.4401 H   0  0  0  0  0  0  0  0  0  0  0  0
   -1.5397   -2.5597   -1.7817 H   0  0  0  0  0  0  0  0  0  0  0  0
   -3.2026   -2.1760   -0.4347 H   0  0  0  0  0  0  0  0  0  0  0  0
   -4.1758   -1.6444   -1.8393 H   0  0  0  0  0  0  0  0  0  0  0  0
   -4.9755    0.4085   -1.0523 H   0  0  0  0  0  0  0  0  0  0  0  0
    2.1168   -1.5913   -2.0518 H   0  0  0  0  0  0  0  0  0  0  0  0
    1.2630   -2.5530    0.6720 H   0  0  0  0  0  0  0  0  0  0  0  0
    0.2277   -4.4189   -0.6308 H   0  0  0  0  0  0  0  0  0  0  0  0
    0.5202   -3.5273   -2.1826 H   0  0  0  0  0  0  0  0  0  0  0  0
    1.9021   -4.0999   -1.1925 H   0  0  0  0  0  0  0  0  0  0  0  0
  1 20  1  0  0  0  0
  1  2  1  0  0  0  0
  2  7  1  1  0  0  0
  3  2  1  0  0  0  0
  3  8  1  0  0  0  0
  4  3  2  0  0  0  0
  5  6  2  0  0  0  0
  5  4  1  0  0  0  0
  6  1  1  0  0  0  0
  7 21  1  0  0  0  0
  7 23  1  0  0  0  0
  9  4  1  1  0  0  0
  9 19  1  0  0  0  0
 10  5  1  0  0  0  0
 10 25  1  0  0  0  0
 11 24  1  0  0  0  0
 11 10  1  0  0  0  0
 12 18  2  0  0  0  0
 12 17  1  0  0  0  0
 13 28  1  6  0  0  0
 13 14  1  0  0  0  0
 13 12  1  0  0  0  0
 14 19  1  0  0  0  0
 14 29  1  1  0  0  0
 15 30  1  0  0  0  0
 15 14  1  0  0  0  0
 16 13  1  0  0  0  0
 16  9  1  0  0  0  0
 22  7  1  0  0  0  0
 26 10  1  0  0  0  0
 27  6  1  0  0  0  0
 31 15  1  0  0  0  0
 32 15  1  0  0  0  0
M  CHG  2   8  -1  17  -1
M  END
