2,4,5
q = -2.0, confidence = 0.9

 28 29  0  0  0  0  0  0  0  0999 V2000
    3.2188   -0.3251   -0.5612 Br  0  0  0  0  0  0  0  0  0  0  0  0
   -1.7841   -1.3382    0.3974 N   0  0  0  0  0  2  0  0  0  0  0  0
   -0.7369   -2.1290    0.7658 N   0  0  0  0  0  0  0  0  0  0  0  0
   -2.9695    0.8437   -0.5753 O   0  5  0  0  0  0  0  0  0  0  0  0
    0.2576   -0.9227   -0.9110 O   0  5  0  0  0  0  0  0  0  0  0  0
   -4.1043   -0.7209    0.8409 C   0  0  0  0  0  0  0  0  0  0  0  0
   -4.0787    0.4601    0.0256 C   0  0  0  0  0  0  0  0  0  0  0  0
   -5.2545    1.2399   -0.0925 C   0  0  0  0  0  0  0  0  0  0  0  0
   -5.2122    2.1440   -0.7161 H   0  0  0  0  0  0  0  0  0  0  0  0
   -6.4241    0.8576    0.5678 C   0  0  0  0  0  0  0  0  0  0  0  0
   -7.3300    1.4736    0.4577 H   0  0  0  0  0  0  0  0  0  0  0  0
   -6.4589   -0.3022    1.3729 C   0  0  0  0  0  0  0  0  0  0  0  0
   -7.3853   -0.5919    1.8891 H   0  0  0  0  0  0  0  0  0  0  0  0
   -5.3064   -1.0728    1.5094 C   0  0  0  0  0  0  0  0  0  0  0  0
   -5.3118   -1.9767    2.1386 H   0  0  0  0  0  0  0  0  0  0  0  0
   -2.9193   -1.5052    1.0390 C   0  0  0  0  0  3  0  0  0  0  0  0
   -2.9337   -2.3113    1.7956 H   0  0  0  0  0  0  0  0  0  0  0  0
    0.3110   -1.8398    0.0123 C   0  0  0  0  0  0  0  0  0  0  0  0
    1.5603   -2.6149    0.2165 C   0  0  0  0  0  0  0  0  0  0  0  0
    2.8648   -2.1249   -0.0370 C   0  0  0  0  0  0  0  0  0  0  0  0
    3.9905   -2.9441    0.1567 C   0  0  0  0  0  0  0  0  0  0  0  0
    4.9904   -2.5345   -0.0437 H   0  0  0  0  0  0  0  0  0  0  0  0
    3.8359   -4.2602    0.6103 C   0  0  0  0  0  0  0  0  0  0  0  0
    4.7258   -4.8920    0.7514 H   0  0  0  0  0  0  0  0  0  0  0  0
    2.5534   -4.7593    0.8891 C   0  0  0  0  0  0  0  0  0  0  0  0
    2.4229   -5.7889    1.2534 H   0  0  0  0  0  0  0  0  0  0  0  0
    1.4377   -3.9415    0.6956 C   0  0  0  0  0  0  0  0  0  0  0  0
    0.4222   -4.3056    0.9054 H   0  0  0  0  0  0  0  0  0  0  0  0
  1 20  1  0  0  0  0
  2  3  1  0  0  0  0
  2 16  1  0  0  0  0
  4  7  1  0  0  0  0
  5 18  1  0  0  0  0
  6 16  1  0  0  0  0
  6 14  1  0  0  0  0
  7  6  2  0  0  0  0
  8  7  1  0  0  0  0
  8 10  2  0  0  0  0
  9  8  1  0  0  0  0
 10 12  1  0  0  0  0
 11 10  1  0  0  0  0
 12 14  2  0  0  0  0
 12 13  1  0  0  0  0
 14 15  1  0  0  0  0
 16 17  1  0  0  0  0
 18 19  1  0  0  0  0
 18  3  2  0  0  0  0
 19 27  1  0  0  0  0
 20 21  1  0  0  0  0
 20 19  2  0  0  0  0
 21 23  2  0  0  0  0
 22 21  1  0  0  0  0
 23 24  1  0  0  0  0
 23 25  1  0  0  0  0
 25 26  1  0  0  0  0
 27 25  2  0  0  0  0
 27 28  1  0  0  0  0
M  CHG  2   4  -1   5  -1
M  END
