1,2,4
q = -2.0, confidence = 0.842

 56 57  0  0  0  0  0  0  0  0999 V2000
   -1.9558    0.1599   -0.4044 O   0  5  0  0  0  0  0  0  0  0  0  0
    1.9568    0.1626    0.4047 O   0  5  0  0  0  0  0  0  0  0  0  0
   -0.5938   -1.6166    1.3447 N   0  0  0  0  0  0  0  0  0  0  0  0
    0.5972   -1.6154   -1.3448 N   0  0  0  0  0  0  0  0  0  0  0  0
   -3.0393   -0.5922   -0.1785 C   0  0  0  0  0  0  0  0  0  0  0  0
   -4.1166   -0.5742   -1.1049 C   0  0  0  0  0  0  0  0  0  0  0  0
   -5.2311   -1.3879   -0.8481 C   0  0  0  0  0  0  0  0  0  0  0  0
   -6.0681   -1.3730   -1.5663 H   0  0  0  0  0  0  0  0  0  0  0  0
   -5.3152   -2.2226    0.2860 C   0  0  0  0  0  0  0  0  0  0  0  0
   -4.2269   -2.2295    1.1770 C   0  0  0  0  0  0  0  0  0  0  0  0
   -4.2592   -2.8813    2.0660 H   0  0  0  0  0  0  0  0  0  0  0  0
   -3.0935   -1.4236    0.9694 C   0  0  0  0  0  0  0  0  0  0  0  0
   -4.0233    0.3157   -2.3141 C   0  0  0  0  0  0  0  0  0  0  0  0
   -3.1146    0.0931   -2.9114 H   0  0  0  0  0  0  0  0  0  0  0  0
   -3.9335    1.3823   -2.0187 H   0  0  0  0  0  0  0  0  0  0  0  0
   -4.9103    0.2076   -2.9667 H   0  0  0  0  0  0  0  0  0  0  0  0
   -6.5421   -3.0641    0.5372 C   0  0  0  0  0  0  0  0  0  0  0  0
   -6.8795   -3.5814   -0.3843 H   0  0  0  0  0  0  0  0  0  0  0  0
   -7.3951   -2.4426    0.8859 H   0  0  0  0  0  0  0  0  0  0  0  0
   -6.3580   -3.8338    1.3121 H   0  0  0  0  0  0  0  0  0  0  0  0
   -1.9502   -1.4200    1.9537 C   0  0  0  0  0  0  0  0  0  0  0  0
   -1.8966   -0.4547    2.4989 H   0  0  0  0  0  0  0  0  0  0  0  0
   -2.1203   -2.2221    2.7089 H   0  0  0  0  0  0  0  0  0  0  0  0
   -0.5861   -2.8174    0.4782 C   0  0  0  0  0  0  0  0  0  0  0  0
   -1.5423   -2.8336   -0.0808 H   0  0  0  0  0  0  0  0  0  0  0  0
   -0.5676   -3.7452    1.0975 H   0  0  0  0  0  0  0  0  0  0  0  0
    0.5914   -2.8164   -0.4785 C   0  0  0  0  0  0  0  0  0  0  0  0
    1.5476   -2.8313    0.0805 H   0  0  0  0  0  0  0  0  0  0  0  0
    0.5742   -3.7441   -1.0979 H   0  0  0  0  0  0  0  0  0  0  0  0
    1.9534   -1.4167   -1.9538 C   0  0  0  0  0  0  0  0  0  0  0  0
    1.8983   -0.4514   -2.4988 H   0  0  0  0  0  0  0  0  0  0  0  0
    2.1246   -2.2184   -2.7092 H   0  0  0  0  0  0  0  0  0  0  0  0
    3.0967   -1.4189   -0.9696 C   0  0  0  0  0  0  0  0  0  0  0  0
    3.0414   -0.5878    0.1785 C   0  0  0  0  0  0  0  0  0  0  0  0
    4.1188   -0.5684    1.1049 C   0  0  0  0  0  0  0  0  0  0  0  0
    5.2345   -1.3804    0.8478 C   0  0  0  0  0  0  0  0  0  0  0  0
    6.0714   -1.3645    1.5659 H   0  0  0  0  0  0  0  0  0  0  0  0
    5.3197   -2.2147   -0.2866 C   0  0  0  0  0  0  0  0  0  0  0  0
    4.2313   -2.2230   -1.1775 C   0  0  0  0  0  0  0  0  0  0  0  0
    4.2645   -2.8746   -2.0667 H   0  0  0  0  0  0  0  0  0  0  0  0
    4.0242    0.3210    2.3143 C   0  0  0  0  0  0  0  0  0  0  0  0
    3.1154    0.0977    2.9110 H   0  0  0  0  0  0  0  0  0  0  0  0
    3.9340    1.3876    2.0192 H   0  0  0  0  0  0  0  0  0  0  0  0
    4.9110    0.2133    2.9673 H   0  0  0  0  0  0  0  0  0  0  0  0
    6.5479   -3.0542   -0.5382 C   0  0  0  0  0  0  0  0  0  0  0  0
    6.8865   -3.5707    0.3833 H   0  0  0  0  0  0  0  0  0  0  0  0
    7.3997   -2.4315   -0.8874 H   0  0  0  0  0  0  0  0  0  0  0  0
    6.3646   -3.8245   -1.3127 H   0  0  0  0  0  0  0  0  0  0  0  0
    0.3935   -1.7453    2.4366 C   0  0  0  0  0  0  0  0  0  0  0  0
    0.1414   -2.6111    3.0919 H   0  0  0  0  0  0  0  0  0  0  0  0
    0.3869   -0.8157    3.0344 H   0  0  0  0  0  0  0  0  0  0  0  0
    1.4098   -1.8901    2.0264 H   0  0  0  0  0  0  0  0  0  0  0  0
   -0.3899   -1.7454   -2.4366 C   0  0  0  0  0  0  0  0  0  0  0  0
   -1.4060   -1.8917   -2.0264 H   0  0  0  0  0  0  0  0  0  0  0  0
   -0.1367   -2.6108   -3.0920 H   0  0  0  0  0  0  0  0  0  0  0  0
   -0.3846   -0.8157   -3.0343 H   0  0  0  0  0  0  0  0  0  0  0  0
  1  5  1  0  0  0  0
  3 21  1  0  0  0  0
  3 49  1  0  0  0  0
  4 27  1  0  0  0  0
  5 12  1  0  0  0  0
  6  7  1  0  0  0  0
  6  5  2  0  0  0  0
  7  9  2  0  0  0  0
  8  7  1  0  0  0  0
  9 17  1  0  0  0  0
  9 10  1  0  0  0  0
 10 11  1  0  0  0  0
 12 10  2  0  0  0  0
 12 21  1  0  0  0  0
 13 15  1  0  0  0  0
 13  6  1  0  0  0  0
 14 13  1  0  0  0  0
 16 13  1  0  0  0  0
 17 19  1  0  0  0  0
 17 20  1  0  0  0  0
 18 17  1  0  0  0  0
 21 22  1  0  0  0  0
 21 23  1  0  0  0  0
 24 26  1  0  0  0  0
 24  3  1  0  0  0  0
 25 24  1  0  0  0  0
 27 28  1  0  0  0  0
 27 24  1  0  0  0  0
 29 27  1  0  0  0  0
 30  4  1  0  0  0  0
 30 33  1  0  0  0  0
 31 30  1  0  0  0  0
 32 30  1  0  0  0  0
 33 34  1  0  0  0  0
 34  2  1  0  0  0  0
 34 35  2  0  0  0  0
 35 41  1  0  0  0  0
 36 35  1  0  0  0  0
 36 37  1  0  0  0  0
 38 36  2  0  0  0  0
 39 33  2  0  0  0  0
 39 38  1  0  0  0  0
 40 39  1  0  0  0  0
 41 42  1  0  0  0  0
 41 44  1  0  0  0  0
 43 41  1  0  0  0  0
 45 38  1  0  0  0  0
 45 46  1  0  0  0  0
 47 45  1  0  0  0  0
 48 45  1  0  0  0  0
 49 51  1  0  0  0  0
 49 50  1  0  0  0  0
 52 49  1  0  0  0  0
 53 54  1  0  0  0  0
 53  4  1  0  0  0  0
 55 53  1  0  0  0  0
 56 53  1  0  0  0  0
M  CHG  2   1  -1   2  -1
M  END
