1,2,3
q = -2.0, confidence = 0.882

 21 21  0  0  0  0  0  0  0  0999 V2000
   -1.2399   -0.7406    1.0521 O   0  5  0  0  0  0  0  0  0  0  0  0
    1.9263   -2.4077   -0.3254 O   0  0  0  0  0  1  0  0  0  0  0  0
   -0.1244   -1.2419   -1.4587 N   0  0  0  0  0  2  0  0  0  0  0  0
   -2.3265   -0.4515    0.3674 C   0  0  0  0  0  0  0  0  0  0  0  0
   -3.4888   -0.0560    1.0868 C   0  0  0  0  0  0  0  0  0  0  0  0
   -4.6596    0.3148    0.4255 C   0  0  0  0  0  0  0  0  0  0  0  0
   -4.7245    0.3154   -0.9851 C   0  0  0  0  0  0  0  0  0  0  0  0
   -3.5992   -0.0702   -1.7105 C   0  0  0  0  0  0  0  0  0  0  0  0
   -2.3938   -0.4628   -1.0709 C   0  0  0  0  0  0  0  0  0  0  0  0
   -1.2603   -0.8148   -1.9030 C   0  0  0  0  0  3  0  0  0  0  0  0
    0.9862   -1.5485   -2.3396 C   0  0  0  0  0  0  0  0  0  0  0  0
    1.7419   -2.7133   -1.6844 C   0  0  0  0  0  0  0  0  0  0  0  0
   -3.4272   -0.0699    2.1849 H   0  0  0  0  0  0  0  0  0  0  0  0
   -5.5436    0.6051    1.0144 H   0  0  0  0  0  0  0  0  0  0  0  0
   -5.6492    0.6085   -1.5022 H   0  0  0  0  0  0  0  0  0  0  0  0
   -3.6298   -0.0797   -2.8123 H   0  0  0  0  0  0  0  0  0  0  0  0
   -1.4076   -0.6892   -3.0002 H   0  0  0  0  0  0  0  0  0  0  0  0
    1.6638   -0.6648   -2.3671 H   0  0  0  0  0  0  0  0  0  0  0  0
    0.6622   -1.7735   -3.3811 H   0  0  0  0  0  0  0  0  0  0  0  0
    2.7296   -2.8636   -2.1741 H   0  0  0  0  0  0  0  0  0  0  0  0
    1.1470   -3.6531   -1.7904 H   0  0  0  0  0  0  0  0  0  0  0  0
  4  1  1  0  0  0  0
  4  5  1  0  0  0  0
  5 13  1  0  0  0  0
  6 14  1  0  0  0  0
  6  5  2  0  0  0  0
  7  6  1  0  0  0  0
  8  9  1  0  0  0  0
  8  7  2  0  0  0  0
  9  4  2  0  0  0  0
 10  3  1  0  0  0  0
 10  9  1  0  0  0  0
 11 12  1  0  0  0  0
 11  3  1  0  0  0  0
 12  2  1  0  0  0  0
 15  7  1  0  0  0  0
 16  8  1  0  0  0  0
 17 10  1  0  0  0  0
 18 11  1  0  0  0  0
 19 11  1  0  0  0  0
 20 12  1  0  0  0  0
 21 12  1  0  0  0  0
M  CHG  1   1  -1
M  END
