1,10,18
q = -2.0, confidence = 0.748

 18 18  0  0  1  0  0  0  0  0999 V2000
    1.5591   -0.2919   -0.1362 N   0  0  0  0  0  2  0  0  0  0  0  0
    2.3422   -0.7058    0.8833 C   0  0  2  0  0  3  0  0  0  0  0  0
    3.6976   -0.3761    0.8919 C   0  0  0  0  0  0  0  0  0  0  0  0
    4.3310   -0.7206    1.7208 H   0  0  0  0  0  0  0  0  0  0  0  0
    4.2120    0.3957   -0.1764 C   0  0  0  0  0  0  0  0  0  0  0  0
    3.3526    0.8223   -1.2166 C   0  0  0  0  0  0  0  0  0  0  0  0
    3.7335    1.4293   -2.0507 H   0  0  0  0  0  0  0  0  0  0  0  0
    2.0085    0.4589   -1.1666 C   0  0  0  0  0  0  0  0  0  0  0  0
    1.5504   -1.5166    1.8879 C   0  0  0  0  0  0  0  0  0  0  0  0
    0.2799   -1.6450    1.5091 O   0  5  0  0  0  0  0  0  0  0  0  0
    2.0431   -2.0009    2.8952 O   0  0  0  0  0  0  0  0  0  0  0  0
    5.6514    0.7929   -0.2507 C   0  0  0  0  0  0  0  0  0  0  0  0
    6.3721    0.3215    0.7967 O   0  0  0  0  0  0  0  0  0  0  0  0
    7.2902    0.6348    0.6484 H   0  0  0  0  0  0  0  0  0  0  0  0
    6.1332    1.4649   -1.1454 O   0  0  0  0  0  0  0  0  0  0  0  0
    0.8835    0.7827   -2.1323 C   0  0  0  0  0  0  0  0  0  0  0  0
    1.0432    1.4514   -3.1444 O   0  5  0  0  0  0  0  0  0  0  0  0
   -0.2607    0.2525   -1.7329 O   0  0  0  0  0  0  0  0  0  0  0  0
  1  2  1  0  0  0  0
  2  3  1  0  0  0  0
  2  9  1  6  0  0  0
  3  4  1  0  0  0  0
  5  3  2  0  0  0  0
  6  8  2  0  0  0  0
  6  5  1  0  0  0  0
  7  6  1  0  0  0  0
  8  1  1  0  0  0  0
  9 11  2  0  0  0  0
 10  9  1  0  0  0  0
 12  5  1  0  0  0  0
 12 13  1  0  0  0  0
 14 13  1  0  0  0  0
 15 12  2  0  0  0  0
 16 18  2  0  0  0  0
 16  8  1  0  0  0  0
 17 16  1  0  0  0  0
M  CHG  2  10  -1  17  -1
M  END
