1,2,8
q = -2.0, confidence = 0.922

 63 67  0  0  1  0  0  0  0  0999 V2000
    2.4731   -2.3552    0.0064 O   0  5  0  0  0  0  0  0  0  0  0  0
   -0.9786   -1.5470    0.5858 O   0  0  0  0  0  1  0  0  0  0  0  0
    0.0762    2.2817   -0.7109 O   0  0  0  0  0  0  0  0  0  0  0  0
   -3.6305   -0.2194    0.0305 O   0  0  0  0  0  0  0  0  0  0  0  0
   -1.4522    2.5580    1.0587 O   0  0  0  0  0  0  0  0  0  0  0  0
   -4.9118    1.7419    0.2204 O   0  0  0  0  0  0  0  0  0  0  0  0
    4.7317   -3.5656   -0.6082 O   0  0  0  0  0  0  0  0  0  0  0  0
    1.1336   -0.1562    0.6453 N   0  0  0  0  0  2  0  0  0  0  0  0
   -0.1712    2.0837    0.6561 C   0  0  1  0  0  0  0  0  0  0  0  0
    0.5406    2.6666    1.2853 H   0  0  0  0  0  0  0  0  0  0  0  0
   -0.0867    0.5799    0.9474 C   0  0  1  0  0  0  0  0  0  0  0  0
   -0.2752    0.4658    2.0394 H   0  0  0  0  0  0  0  0  0  0  0  0
   -1.1988   -0.2149    0.2389 C   0  0  2  0  0  0  0  0  0  0  0  0
   -1.1164   -0.0614   -0.8642 H   0  0  0  0  0  0  0  0  0  0  0  0
   -2.5264    0.3631    0.7016 C   0  0  1  0  0  0  0  0  0  0  0  0
   -2.6214    0.2025    1.8055 H   0  0  0  0  0  0  0  0  0  0  0  0
   -2.5248    1.8772    0.4055 C   0  0  1  0  0  0  0  0  0  0  0  0
   -2.4443    1.9962   -0.6981 H   0  0  0  0  0  0  0  0  0  0  0  0
   -3.8631    2.4577    0.8578 C   0  0  0  0  0  0  0  0  0  0  0  0
   -3.9382    2.3864    1.9713 H   0  0  0  0  0  0  0  0  0  0  0  0
   -3.9624    3.5219    0.5673 H   0  0  0  0  0  0  0  0  0  0  0  0
    2.2697    0.4545    0.4539 C   0  0  0  0  0  3  0  0  0  0  0  0
    2.3127    1.5595    0.5172 H   0  0  0  0  0  0  0  0  0  0  0  0
    3.5139   -0.1956    0.1491 C   0  0  0  0  0  0  0  0  0  0  0  0
    4.7065    0.5748    0.0392 C   0  0  0  0  0  0  0  0  0  0  0  0
    4.6541    1.6600    0.2121 H   0  0  0  0  0  0  0  0  0  0  0  0
    5.9067   -0.0434   -0.2788 C   0  0  0  0  0  0  0  0  0  0  0  0
    6.8335    0.5430   -0.3582 H   0  0  0  0  0  0  0  0  0  0  0  0
    5.9499   -1.4421   -0.5054 C   0  0  0  0  0  0  0  0  0  0  0  0
    6.9100   -1.9130   -0.7573 H   0  0  0  0  0  0  0  0  0  0  0  0
    4.7942   -2.2239   -0.4087 C   0  0  0  0  0  0  0  0  0  0  0  0
    3.5371   -1.6060   -0.0690 C   0  0  0  0  0  0  0  0  0  0  0  0
    0.3049    3.6557   -1.0743 C   0  0  0  0  0  0  0  0  0  0  0  0
   -0.4282    4.3099   -0.5558 H   0  0  0  0  0  0  0  0  0  0  0  0
    0.1040    3.7031   -2.1627 H   0  0  0  0  0  0  0  0  0  0  0  0
    1.7236    4.0786   -0.7711 C   0  0  0  0  0  0  0  0  0  0  0  0
    2.0231    4.8885    0.3420 C   0  0  0  0  0  0  0  0  0  0  0  0
    1.2017    5.2743    0.9671 H   0  0  0  0  0  0  0  0  0  0  0  0
    3.3536    5.2138    0.6537 C   0  0  0  0  0  0  0  0  0  0  0  0
    3.5735    5.8474    1.5262 H   0  0  0  0  0  0  0  0  0  0  0  0
    4.3993    4.7344   -0.1498 C   0  0  0  0  0  0  0  0  0  0  0  0
    5.4420    4.9920    0.0902 H   0  0  0  0  0  0  0  0  0  0  0  0
    4.1113    3.9280   -1.2649 C   0  0  0  0  0  0  0  0  0  0  0  0
    4.9277    3.5494   -1.8983 H   0  0  0  0  0  0  0  0  0  0  0  0
    2.7835    3.5993   -1.5690 C   0  0  0  0  0  0  0  0  0  0  0  0
    2.5598    2.9551   -2.4338 H   0  0  0  0  0  0  0  0  0  0  0  0
   -4.8432    0.3520    0.4876 C   0  0  1  0  0  0  0  0  0  0  0  0
   -4.8872    0.2125    1.6047 H   0  0  0  0  0  0  0  0  0  0  0  0
   -6.0045   -0.3489   -0.1783 C   0  0  0  0  0  0  0  0  0  0  0  0
   -5.8862   -1.7006   -0.5502 C   0  0  0  0  0  0  0  0  0  0  0  0
   -4.9291   -2.2170   -0.3892 H   0  0  0  0  0  0  0  0  0  0  0  0
   -6.9755   -2.3662   -1.1312 C   0  0  0  0  0  0  0  0  0  0  0  0
   -6.8757   -3.4227   -1.4234 H   0  0  0  0  0  0  0  0  0  0  0  0
   -8.1865   -1.6882   -1.3442 C   0  0  0  0  0  0  0  0  0  0  0  0
   -9.0403   -2.2123   -1.8004 H   0  0  0  0  0  0  0  0  0  0  0  0
   -8.3033   -0.3383   -0.9765 C   0  0  0  0  0  0  0  0  0  0  0  0
   -9.2482    0.2001   -1.1470 H   0  0  0  0  0  0  0  0  0  0  0  0
   -7.2163    0.3311   -0.3951 C   0  0  0  0  0  0  0  0  0  0  0  0
   -7.2924    1.3908   -0.1136 H   0  0  0  0  0  0  0  0  0  0  0  0
    5.9260   -4.2450   -0.9380 C   0  0  0  0  0  0  0  0  0  0  0  0
    5.6583   -5.3114   -1.0545 H   0  0  0  0  0  0  0  0  0  0  0  0
    6.6925   -4.1494   -0.1357 H   0  0  0  0  0  0  0  0  0  0  0  0
    6.3640   -3.8748   -1.8928 H   0  0  0  0  0  0  0  0  0  0  0  0
  3  9  1  0  0  0  0
  4 47  1  0  0  0  0
  4 15  1  0  0  0  0
  6 47  1  0  0  0  0
  6 19  1  0  0  0  0
  7 31  1  0  0  0  0
  8 11  1  0  0  0  0
  9 11  1  0  0  0  0
  9  5  1  0  0  0  0
  9 10  1  1  0  0  0
 11 12  1  1  0  0  0
 13 14  1  6  0  0  0
 13  2  1  0  0  0  0
 13 15  1  0  0  0  0
 13 11  1  0  0  0  0
 15 16  1  1  0  0  0
 17 18  1  6  0  0  0
 17 15  1  0  0  0  0
 17 19  1  0  0  0  0
 17  5  1  0  0  0  0
 19 20  1  0  0  0  0
 21 19  1  0  0  0  0
 22 23  1  0  0  0  0
 22  8  1  0  0  0  0
 24 22  1  0  0  0  0
 25 24  1  0  0  0  0
 25 26  1  0  0  0  0
 27 25  2  0  0  0  0
 28 27  1  0  0  0  0
 29 31  2  0  0  0  0
 29 27  1  0  0  0  0
 30 29  1  0  0  0  0
 31 32  1  0  0  0  0
 32  1  1  0  0  0  0
 32 24  2  0  0  0  0
 33 36  1  0  0  0  0
 33  3  1  0  0  0  0
 33 34  1  0  0  0  0
 35 33  1  0  0  0  0
 36 37  1  0  0  0  0
 37 39  2  0  0  0  0
 37 38  1  0  0  0  0
 39 40  1  0  0  0  0
 41 42  1  0  0  0  0
 41 39  1  0  0  0  0
 43 41  2  0  0  0  0
 44 43  1  0  0  0  0
 45 43  1  0  0  0  0
 45 36  2  0  0  0  0
 46 45  1  0  0  0  0
 47 48  1  1  0  0  0
 49 47  1  0  0  0  0
 50 51  1  0  0  0  0
 50 49  2  0  0  0  0
 52 50  1  0  0  0  0
 53 52  1  0  0  0  0
 54 52  2  0  0  0  0
 54 56  1  0  0  0  0
 55 54  1  0  0  0  0
 56 58  2  0  0  0  0
 57 56  1  0  0  0  0
 58 49  1  0  0  0  0
 58 59  1  0  0  0  0
 60  7  1  0  0  0  0
 60 62  1  0  0  0  0
 61 60  1  0  0  0  0
 63 60  1  0  0  0  0
M  CHG  1   1  -1
M  END
