1,2,5
q = -2.0, confidence = 0.812

 36 36  0  0  0  0  0  0  0  0999 V2000
    0.0030   -1.3004    0.3376 O   0  5  0  0  0  0  0  0  0  0  0  0
   -3.1648    0.5840   -0.3003 O   0  0  0  0  0  1  0  0  0  0  0  0
   -1.7462   -0.0018    2.1142 O   0  0  0  0  0  0  0  0  0  0  0  0
   -2.6327   -0.1929    2.4757 H   0  0  0  0  0  0  0  0  0  0  0  0
   -0.6516    1.4043   -0.1194 N   0  0  0  0  0  0  0  0  0  0  0  0
    1.2634   -0.9331    0.0707 C   0  0  0  0  0  0  0  0  0  0  0  0
    2.3065   -1.8133    0.4411 C   0  0  0  0  0  0  0  0  0  0  0  0
    2.0251   -2.7692    0.9057 H   0  0  0  0  0  0  0  0  0  0  0  0
    3.6420   -1.4775    0.2102 C   0  0  0  0  0  0  0  0  0  0  0  0
    4.4349   -2.1864    0.4988 H   0  0  0  0  0  0  0  0  0  0  0  0
    3.9936   -0.2470   -0.3838 C   0  0  0  0  0  0  0  0  0  0  0  0
    2.9492    0.6269   -0.7320 C   0  0  0  0  0  0  0  0  0  0  0  0
    3.1984    1.5995   -1.1903 H   0  0  0  0  0  0  0  0  0  0  0  0
    1.5920    0.3119   -0.5322 C   0  0  0  0  0  0  0  0  0  0  0  0
    0.5376    1.2859   -1.0019 C   0  0  0  0  0  0  0  0  0  0  0  0
    1.0116    2.2880   -1.1265 H   0  0  0  0  0  0  0  0  0  0  0  0
    0.1517    0.9789   -1.9973 H   0  0  0  0  0  0  0  0  0  0  0  0
   -1.6354    2.3765   -0.6667 C   0  0  0  0  0  0  0  0  0  0  0  0
   -1.1680    3.0006   -1.4578 H   0  0  0  0  0  0  0  0  0  0  0  0
   -1.9425    3.0651    0.1456 H   0  0  0  0  0  0  0  0  0  0  0  0
   -2.8688    1.6257   -1.1917 C   0  0  0  0  0  0  0  0  0  0  0  0
   -3.7356    2.3197   -1.2716 H   0  0  0  0  0  0  0  0  0  0  0  0
   -2.6609    1.2101   -2.2077 H   0  0  0  0  0  0  0  0  0  0  0  0
   -0.3014    1.7008    1.2862 C   0  0  0  0  0  0  0  0  0  0  0  0
    0.0059    2.7662    1.4079 H   0  0  0  0  0  0  0  0  0  0  0  0
    0.5690    1.0734    1.5610 H   0  0  0  0  0  0  0  0  0  0  0  0
   -1.4537    1.3924    2.2300 C   0  0  0  0  0  0  0  0  0  0  0  0
   -1.1474    1.6415    3.2699 H   0  0  0  0  0  0  0  0  0  0  0  0
   -2.3513    1.9984    1.9760 H   0  0  0  0  0  0  0  0  0  0  0  0
    5.4413    0.1478   -0.5731 C   0  0  0  0  0  0  0  0  0  0  0  0
    6.0386   -0.7555   -0.8205 H   0  0  0  0  0  0  0  0  0  0  0  0
    5.5283    0.8258   -1.4485 H   0  0  0  0  0  0  0  0  0  0  0  0
    6.0421    0.8315    0.6649 C   0  0  0  0  0  0  0  0  0  0  0  0
    5.4848    1.7568    0.9175 H   0  0  0  0  0  0  0  0  0  0  0  0
    7.1045    1.1054    0.5020 H   0  0  0  0  0  0  0  0  0  0  0  0
    5.9925    0.1653    1.5503 H   0  0  0  0  0  0  0  0  0  0  0  0
  3 27  1  0  0  0  0
  3  4  1  0  0  0  0
  5 24  1  0  0  0  0
  6  1  1  0  0  0  0
  6  7  1  0  0  0  0
  7  8  1  0  0  0  0
  9  7  2  0  0  0  0
  9 10  1  0  0  0  0
 11  9  1  0  0  0  0
 12 14  1  0  0  0  0
 12 11  2  0  0  0  0
 13 12  1  0  0  0  0
 14  6  2  0  0  0  0
 15 14  1  0  0  0  0
 15  5  1  0  0  0  0
 16 15  1  0  0  0  0
 17 15  1  0  0  0  0
 18  5  1  0  0  0  0
 18 20  1  0  0  0  0
 19 18  1  0  0  0  0
 21 18  1  0  0  0  0
 21  2  1  0  0  0  0
 22 21  1  0  0  0  0
 23 21  1  0  0  0  0
 24 25  1  0  0  0  0
 24 26  1  0  0  0  0
 24 27  1  0  0  0  0
 27 28  1  0  0  0  0
 29 27  1  0  0  0  0
 30 11  1  0  0  0  0
 30 33  1  0  0  0  0
 31 30  1  0  0  0  0
 32 30  1  0  0  0  0
 33 34  1  0  0  0  0
 33 36  1  0  0  0  0
 35 33  1  0  0  0  0
M  CHG  1   1  -1
M  END
