1,2,5
q = -2.0, confidence = 0.818

 33 33  0  0  0  0  0  0  0  0999 V2000
   -0.3381   -1.2651    0.2981 O   0  5  0  0  0  0  0  0  0  0  0  0
    2.9076    0.4701   -0.3754 O   0  0  0  0  0  1  0  0  0  0  0  0
    1.5803   -0.2150    2.0652 O   0  0  0  0  0  0  0  0  0  0  0  0
    2.4705   -0.4853    2.3610 H   0  0  0  0  0  0  0  0  0  0  0  0
    0.4644    1.4226    0.0073 N   0  0  0  0  0  0  0  0  0  0  0  0
   -1.5838   -0.8021    0.1286 C   0  0  0  0  0  0  0  0  0  0  0  0
   -2.6622   -1.6397    0.4991 C   0  0  0  0  0  0  0  0  0  0  0  0
   -2.4200   -2.6401    0.8857 H   0  0  0  0  0  0  0  0  0  0  0  0
   -3.9825   -1.2065    0.3711 C   0  0  0  0  0  0  0  0  0  0  0  0
   -4.8020   -1.8834    0.6616 H   0  0  0  0  0  0  0  0  0  0  0  0
   -4.2855    0.0844   -0.1145 C   0  0  0  0  0  0  0  0  0  0  0  0
   -3.2056    0.9140   -0.4604 C   0  0  0  0  0  0  0  0  0  0  0  0
   -3.4130    1.9328   -0.8293 H   0  0  0  0  0  0  0  0  0  0  0  0
   -1.8623    0.5014   -0.3627 C   0  0  0  0  0  0  0  0  0  0  0  0
   -0.7729    1.4446   -0.8150 C   0  0  0  0  0  0  0  0  0  0  0  0
   -0.4573    1.1931   -1.8499 H   0  0  0  0  0  0  0  0  0  0  0  0
   -1.1876    2.4798   -0.8383 H   0  0  0  0  0  0  0  0  0  0  0  0
    1.4792    2.3739   -0.5198 C   0  0  0  0  0  0  0  0  0  0  0  0
    1.8712    2.9767    0.3236 H   0  0  0  0  0  0  0  0  0  0  0  0
    1.0129    3.0854   -1.2340 H   0  0  0  0  0  0  0  0  0  0  0  0
    2.6331    1.5939   -1.1682 C   0  0  0  0  0  0  0  0  0  0  0  0
    2.3466    1.2723   -2.1991 H   0  0  0  0  0  0  0  0  0  0  0  0
    3.5372    2.2390   -1.2450 H   0  0  0  0  0  0  0  0  0  0  0  0
    0.2053    1.6291    1.4483 C   0  0  0  0  0  0  0  0  0  0  0  0
   -0.6877    1.0345    1.7233 H   0  0  0  0  0  0  0  0  0  0  0  0
   -0.0277    2.6980    1.6658 H   0  0  0  0  0  0  0  0  0  0  0  0
    1.3823    1.1807    2.3012 C   0  0  0  0  0  0  0  0  0  0  0  0
    2.3022    1.7509    2.0446 H   0  0  0  0  0  0  0  0  0  0  0  0
    1.1450    1.3652    3.3722 H   0  0  0  0  0  0  0  0  0  0  0  0
   -5.7140    0.5454   -0.2611 C   0  0  0  0  0  0  0  0  0  0  0  0
   -5.7734    1.6288   -0.4832 H   0  0  0  0  0  0  0  0  0  0  0  0
   -6.3018    0.3540    0.6604 H   0  0  0  0  0  0  0  0  0  0  0  0
   -6.2295    0.0086   -1.0862 H   0  0  0  0  0  0  0  0  0  0  0  0
  3 27  1  0  0  0  0
  3  4  1  0  0  0  0
  5 24  1  0  0  0  0
  6  1  1  0  0  0  0
  6  7  1  0  0  0  0
  7  8  1  0  0  0  0
  9  7  2  0  0  0  0
  9 10  1  0  0  0  0
 11  9  1  0  0  0  0
 12 14  1  0  0  0  0
 12 11  2  0  0  0  0
 13 12  1  0  0  0  0
 14  6  2  0  0  0  0
 15 14  1  0  0  0  0
 15  5  1  0  0  0  0
 16 15  1  0  0  0  0
 17 15  1  0  0  0  0
 18  5  1  0  0  0  0
 18 19  1  0  0  0  0
 20 18  1  0  0  0  0
 21 18  1  0  0  0  0
 21  2  1  0  0  0  0
 22 21  1  0  0  0  0
 23 21  1  0  0  0  0
 24 26  1  0  0  0  0
 24 25  1  0  0  0  0
 24 27  1  0  0  0  0
 27 29  1  0  0  0  0
 28 27  1  0  0  0  0
 30 11  1  0  0  0  0
 30 32  1  0  0  0  0
 31 30  1  0  0  0  0
 33 30  1  0  0  0  0
M  CHG  1   1  -1
M  END
