1,2,3
q = -2.0, confidence = 0.952

 40 43  0  0  0  0  0  0  0  0999 V2000
   -2.7558   -0.7697    0.7406 O   0  5  0  0  0  0  0  0  0  0  0  0
    0.7396    0.3286    1.0112 O   0  0  0  0  0  1  0  0  0  0  0  0
   -0.5795   -1.0069   -0.4590 N   0  0  0  0  0  2  0  0  0  0  0  0
    0.6501   -0.9781   -0.9460 C   0  0  0  0  0  0  0  0  0  0  0  0
    0.9567   -1.7510   -2.0990 C   0  0  0  0  0  0  0  0  0  0  0  0
    1.9828   -1.7609   -2.4925 H   0  0  0  0  0  0  0  0  0  0  0  0
   -0.0544   -2.4934   -2.7126 C   0  0  0  0  0  0  0  0  0  0  0  0
    0.1771   -3.0925   -3.6075 H   0  0  0  0  0  0  0  0  0  0  0  0
   -1.3891   -2.4912   -2.1987 C   0  0  0  0  0  0  0  0  0  0  0  0
   -2.5390   -3.1709   -2.6968 C   0  0  0  0  0  3  0  0  0  0  0  0
   -2.4650   -3.8007   -3.5951 H   0  0  0  0  0  0  0  0  0  0  0  0
   -3.7547   -3.0262   -2.0241 C   0  0  0  0  0  0  0  0  0  0  0  0
   -4.6379   -3.5550   -2.4152 H   0  0  0  0  0  0  0  0  0  0  0  0
   -3.9224   -2.2334   -0.8523 C   0  0  0  0  0  0  0  0  0  0  0  0
   -4.9025   -2.1580   -0.3605 H   0  0  0  0  0  0  0  0  0  0  0  0
   -2.8161   -1.5538   -0.3248 C   0  0  0  0  0  0  0  0  0  0  0  0
   -1.5782   -1.7075   -1.0278 C   0  0  0  0  0  0  0  0  0  0  0  0
    1.5359   -0.0453   -0.1065 C   0  0  0  0  0  0  0  0  0  0  0  0
    1.9042    1.2431   -0.8590 C   0  0  0  0  0  0  0  0  0  0  0  0
    1.4551    1.5382   -2.1572 C   0  0  0  0  0  0  0  0  0  0  0  0
    0.8459    0.8095   -2.7108 H   0  0  0  0  0  0  0  0  0  0  0  0
    1.7620    2.7748   -2.7523 C   0  0  0  0  0  0  0  0  0  0  0  0
    1.4043    2.9926   -3.7702 H   0  0  0  0  0  0  0  0  0  0  0  0
    2.5126    3.7284   -2.0504 C   0  0  0  0  0  0  0  0  0  0  0  0
    2.7499    4.6976   -2.5148 H   0  0  0  0  0  0  0  0  0  0  0  0
    2.9612    3.4389   -0.7493 C   0  0  0  0  0  0  0  0  0  0  0  0
    3.5490    4.1830   -0.1904 H   0  0  0  0  0  0  0  0  0  0  0  0
    2.6620    2.2047   -0.1603 C   0  0  0  0  0  0  0  0  0  0  0  0
    3.0028    1.9757    0.8603 H   0  0  0  0  0  0  0  0  0  0  0  0
    2.7847   -0.8160    0.3471 C   0  0  0  0  0  0  0  0  0  0  0  0
    2.7551   -1.5366    1.5551 C   0  0  0  0  0  0  0  0  0  0  0  0
    1.8482   -1.5085    2.1772 H   0  0  0  0  0  0  0  0  0  0  0  0
    3.8728   -2.2877    1.9484 C   0  0  0  0  0  0  0  0  0  0  0  0
    3.8430   -2.8448    2.8973 H   0  0  0  0  0  0  0  0  0  0  0  0
    5.0203   -2.3333    1.1407 C   0  0  0  0  0  0  0  0  0  0  0  0
    5.8947   -2.9241    1.4535 H   0  0  0  0  0  0  0  0  0  0  0  0
    5.0499   -1.6172   -0.0664 C   0  0  0  0  0  0  0  0  0  0  0  0
    5.9487   -1.6397   -0.7015 H   0  0  0  0  0  0  0  0  0  0  0  0
    3.9379   -0.8576   -0.4605 C   0  0  0  0  0  0  0  0  0  0  0  0
    3.9734   -0.2759   -1.3946 H   0  0  0  0  0  0  0  0  0  0  0  0
  4  3  1  0  0  0  0
  4 18  1  0  0  0  0
  5  4  2  0  0  0  0
  6  5  1  0  0  0  0
  7  9  2  0  0  0  0
  7  5  1  0  0  0  0
  8  7  1  0  0  0  0
  9 17  1  0  0  0  0
 10  9  1  0  0  0  0
 10 12  1  0  0  0  0
 11 10  1  0  0  0  0
 12 14  2  0  0  0  0
 13 12  1  0  0  0  0
 14 15  1  0  0  0  0
 14 16  1  0  0  0  0
 16  1  1  0  0  0  0
 17  3  1  0  0  0  0
 17 16  2  0  0  0  0
 18 30  1  0  0  0  0
 18  2  1  0  0  0  0
 19 28  1  0  0  0  0
 19 18  1  0  0  0  0
 20 19  2  0  0  0  0
 21 20  1  0  0  0  0
 22 20  1  0  0  0  0
 22 24  2  0  0  0  0
 23 22  1  0  0  0  0
 24 26  1  0  0  0  0
 25 24  1  0  0  0  0
 26 27  1  0  0  0  0
 26 28  2  0  0  0  0
 28 29  1  0  0  0  0
 30 31  1  0  0  0  0
 31 33  2  0  0  0  0
 31 32  1  0  0  0  0
 33 34  1  0  0  0  0
 35 36  1  0  0  0  0
 35 33  1  0  0  0  0
 37 35  2  0  0  0  0
 38 37  1  0  0  0  0
 39 37  1  0  0  0  0
 39 30  2  0  0  0  0
 40 39  1  0  0  0  0
M  CHG  1   1  -1
M  END
