2,4,5
q = -2.0, confidence = 0.908

 31 32  0  0  0  0  0  0  0  0999 V2000
   -6.2530   -1.0723    0.0236 Br  0  0  0  0  0  0  0  0  0  0  0  0
    0.3190   -0.9591   -0.0091 N   0  0  0  0  0  2  0  0  0  0  0  0
    1.3567   -1.8566   -0.0146 N   0  0  0  0  0  0  0  0  0  0  0  0
   -0.7973    1.5419    0.0185 O   0  5  0  0  0  0  0  0  0  0  0  0
    2.5689    0.0962   -0.0255 O   0  5  0  0  0  0  0  0  0  0  0  0
   -1.9402    0.8985    0.0206 C   0  0  0  0  0  0  0  0  0  0  0  0
   -3.1260    1.6914    0.0434 C   0  0  0  0  0  0  0  0  0  0  0  0
   -2.9971    2.7833    0.0656 H   0  0  0  0  0  0  0  0  0  0  0  0
   -4.3940    1.1251    0.0439 C   0  0  0  0  0  0  0  0  0  0  0  0
   -5.2918    1.7591    0.0621 H   0  0  0  0  0  0  0  0  0  0  0  0
   -4.5165   -0.2819    0.0225 C   0  0  0  0  0  0  0  0  0  0  0  0
   -3.3873   -1.0907    0.0021 C   0  0  0  0  0  3  0  0  0  0  0  0
   -3.5195   -2.1792   -0.0125 H   0  0  0  0  0  0  0  0  0  0  0  0
   -2.0727   -0.5370    0.0007 C   0  0  0  0  0  0  0  0  0  0  0  0
   -0.9296   -1.4287   -0.0197 C   0  0  0  0  0  0  0  0  0  0  0  0
    2.5095   -1.2155   -0.0238 C   0  0  0  0  0  0  0  0  0  0  0  0
    3.7795   -1.9727   -0.0362 C   0  0  0  0  0  0  0  0  0  0  0  0
    5.0045   -1.2828   -0.1609 C   0  0  0  0  0  0  0  0  0  0  0  0
    4.9841   -0.1879   -0.2557 H   0  0  0  0  0  0  0  0  0  0  0  0
    6.2150   -1.9878   -0.1733 C   0  0  0  0  0  0  0  0  0  0  0  0
    7.1655   -1.4418   -0.2734 H   0  0  0  0  0  0  0  0  0  0  0  0
    6.2173   -3.3878   -0.0614 C   0  0  0  0  0  0  0  0  0  0  0  0
    7.1689   -3.9411   -0.0706 H   0  0  0  0  0  0  0  0  0  0  0  0
    5.0001   -4.0806    0.0609 C   0  0  0  0  0  0  0  0  0  0  0  0
    4.9979   -5.1779    0.1484 H   0  0  0  0  0  0  0  0  0  0  0  0
    3.7879   -3.3811    0.0725 C   0  0  0  0  0  0  0  0  0  0  0  0
    2.8283   -3.9079    0.1687 H   0  0  0  0  0  0  0  0  0  0  0  0
   -1.1490   -2.9183   -0.0473 C   0  0  0  0  0  0  0  0  0  0  0  0
   -1.7521   -3.2075   -0.9315 H   0  0  0  0  0  0  0  0  0  0  0  0
   -1.7056   -3.2480    0.8535 H   0  0  0  0  0  0  0  0  0  0  0  0
   -0.1770   -3.4354   -0.0825 H   0  0  0  0  0  0  0  0  0  0  0  0
  3  2  1  0  0  0  0
  4  6  1  0  0  0  0
  5 16  1  0  0  0  0
  6  7  2  0  0  0  0
  7  9  1  0  0  0  0
  7  8  1  0  0  0  0
  9 10  1  0  0  0  0
 11  1  1  0  0  0  0
 11  9  2  0  0  0  0
 12 11  1  0  0  0  0
 13 12  1  0  0  0  0
 14 12  1  0  0  0  0
 14  6  1  0  0  0  0
 15  2  1  0  0  0  0
 15 14  2  0  0  0  0
 16  3  2  0  0  0  0
 17 16  1  0  0  0  0
 17 26  1  0  0  0  0
 18 17  2  0  0  0  0
 19 18  1  0  0  0  0
 20 18  1  0  0  0  0
 20 22  2  0  0  0  0
 21 20  1  0  0  0  0
 22 24  1  0  0  0  0
 23 22  1  0  0  0  0
 24 26  2  0  0  0  0
 24 25  1  0  0  0  0
 26 27  1  0  0  0  0
 28 15  1  0  0  0  0
 28 30  1  0  0  0  0
 29 28  1  0  0  0  0
 31 28  1  0  0  0  0
M  CHG  2   4  -1   5  -1
M  END
