1,2,3
q = -2.0, confidence = 0.802

 17 16  0  0  0  0  0  0  0  0999 V2000
    0.2650   -1.8951    0.1498 O   0  5  0  0  0  0  0  0  0  0  0  0
    1.2979    0.2101    1.7239 O   0  5  0  0  0  0  0  0  0  0  0  0
    1.6807    0.2011   -0.8319 N   0  0  0  0  0  0  0  0  0  0  0  0
    1.5079    0.6403   -2.2213 C   0  0  0  0  0  0  0  0  0  0  0  0
    2.3249   -1.1394   -0.7667 C   0  0  0  0  0  0  0  0  0  0  0  0
    1.2866   -2.2614   -0.5727 C   0  0  0  0  0  0  0  0  0  0  0  0
    1.4751   -3.3865   -1.0338 O   0  0  0  0  0  0  0  0  0  0  0  0
    2.4624    1.2101   -0.0746 C   0  0  0  0  0  0  0  0  0  0  0  0
    2.3746    0.8790    1.4233 C   0  0  0  0  0  0  0  0  0  0  0  0
    3.2524    1.2262    2.2112 O   0  0  0  0  0  0  0  0  0  0  0  0
    2.9883   -1.1702    0.1204 H   0  0  0  0  0  0  0  0  0  0  0  0
    2.9487   -1.3327   -1.6640 H   0  0  0  0  0  0  0  0  0  0  0  0
    3.5208    1.2388   -0.4163 H   0  0  0  0  0  0  0  0  0  0  0  0
    1.9869    2.1971   -0.2344 H   0  0  0  0  0  0  0  0  0  0  0  0
    0.8754    1.5482   -2.2466 H   0  0  0  0  0  0  0  0  0  0  0  0
    2.4958    0.8798   -2.6780 H   0  0  0  0  0  0  0  0  0  0  0  0
    1.0409   -0.1617   -2.8193 H   0  0  0  0  0  0  0  0  0  0  0  0
  3  5  1  0  0  0  0
  3  8  1  0  0  0  0
  4  3  1  0  0  0  0
  5  6  1  0  0  0  0
  5 11  1  0  0  0  0
  6  1  1  0  0  0  0
  7  6  2  0  0  0  0
  8  9  1  0  0  0  0
  9  2  1  0  0  0  0
  9 10  2  0  0  0  0
 12  5  1  0  0  0  0
 13  8  1  0  0  0  0
 14  8  1  0  0  0  0
 15  4  1  0  0  0  0
 16  4  1  0  0  0  0
 17  4  1  0  0  0  0
M  CHG  2   1  -1   2  -1
M  END
