1,2,5
q = -2.0, confidence = 0.846

 41 41  0  0  0  0  0  0  0  0999 V2000
   -2.5895   -0.0621    0.6584 O   0  5  0  0  0  0  0  0  0  0  0  0
    0.2652   -2.4267   -0.2899 O   0  5  0  0  0  0  0  0  0  0  0  0
    2.5933   -0.3770    1.0104 O   0  0  0  0  0  0  0  0  0  0  0  0
    3.7129    1.1681   -0.2813 O   0  0  0  0  0  0  0  0  0  0  0  0
   -0.5507   -0.2446   -1.2206 N   0  0  0  0  0  2  0  0  0  0  0  0
    0.5783   -0.7290   -1.8377 N   0  0  0  0  0  0  0  0  0  0  0  0
    3.8062   -0.9866   -0.8346 N   0  0  0  0  0  0  0  0  0  0  0  0
    4.2694   -0.6054   -1.6614 H   0  0  0  0  0  0  0  0  0  0  0  0
   -2.8831    1.0865    0.0567 C   0  0  0  0  0  0  0  0  0  0  0  0
   -3.9776    1.8338    0.5498 C   0  0  0  0  0  0  0  0  0  0  0  0
   -4.5402    1.4145    1.3959 H   0  0  0  0  0  0  0  0  0  0  0  0
   -4.3219    3.0609   -0.0228 C   0  0  0  0  0  0  0  0  0  0  0  0
   -5.1778    3.6233    0.3811 H   0  0  0  0  0  0  0  0  0  0  0  0
   -3.5849    3.5819   -1.1057 C   0  0  0  0  0  0  0  0  0  0  0  0
   -3.8592    4.5477   -1.5538 H   0  0  0  0  0  0  0  0  0  0  0  0
   -2.5047    2.8551   -1.6036 C   0  0  0  0  0  0  0  0  0  0  0  0
   -1.9181    3.2449   -2.4506 H   0  0  0  0  0  0  0  0  0  0  0  0
   -2.1292    1.6036   -1.0484 C   0  0  0  0  0  0  0  0  0  0  0  0
   -0.9925    0.9191   -1.6144 C   0  0  0  0  0  3  0  0  0  0  0  0
   -0.4446    1.4114   -2.4414 H   0  0  0  0  0  0  0  0  0  0  0  0
    0.9145   -1.8802   -1.2964 C   0  0  0  0  0  0  0  0  0  0  0  0
    2.1429   -2.5978   -1.7788 C   0  0  0  0  0  0  0  0  0  0  0  0
    2.3767   -2.2511   -2.8041 H   0  0  0  0  0  0  0  0  0  0  0  0
    1.9240   -3.6843   -1.8116 H   0  0  0  0  0  0  0  0  0  0  0  0
    3.3546   -2.3638   -0.8490 C   0  0  0  0  0  0  0  0  0  0  0  0
    3.0865   -2.6367    0.1901 H   0  0  0  0  0  0  0  0  0  0  0  0
    4.1951   -3.0144   -1.1655 H   0  0  0  0  0  0  0  0  0  0  0  0
    3.2970   -0.0715    0.0398 C   0  0  0  0  0  0  0  0  0  0  0  0
    3.2035    2.3656    0.4194 C   0  0  0  0  0  0  0  0  0  0  0  0
    3.5539    2.3056    1.9095 C   0  0  0  0  0  0  0  0  0  0  0  0
    4.6434    2.1541    2.0445 H   0  0  0  0  0  0  0  0  0  0  0  0
    3.0172    1.4839    2.4156 H   0  0  0  0  0  0  0  0  0  0  0  0
    3.2787    3.2653    2.3904 H   0  0  0  0  0  0  0  0  0  0  0  0
    1.6976    2.4945    0.1717 C   0  0  0  0  0  0  0  0  0  0  0  0
    1.4899    2.4939   -0.9164 H   0  0  0  0  0  0  0  0  0  0  0  0
    1.3312    3.4522    0.5916 H   0  0  0  0  0  0  0  0  0  0  0  0
    1.1242    1.6725    0.6376 H   0  0  0  0  0  0  0  0  0  0  0  0
    3.9667    3.4987   -0.2701 C   0  0  0  0  0  0  0  0  0  0  0  0
    5.0588    3.3748   -0.1326 H   0  0  0  0  0  0  0  0  0  0  0  0
    3.6665    4.4743    0.1590 H   0  0  0  0  0  0  0  0  0  0  0  0
    3.7493    3.5102   -1.3561 H   0  0  0  0  0  0  0  0  0  0  0  0
  4 28  1  0  0  0  0
  4 29  1  0  0  0  0
  6 21  2  0  0  0  0
  6  5  1  0  0  0  0
  7 28  1  0  0  0  0
  8  7  1  0  0  0  0
  9 10  1  0  0  0  0
  9  1  1  0  0  0  0
 10 11  1  0  0  0  0
 12 13  1  0  0  0  0
 12 10  2  0  0  0  0
 14 12  1  0  0  0  0
 15 14  1  0  0  0  0
 16 14  2  0  0  0  0
 16 18  1  0  0  0  0
 17 16  1  0  0  0  0
 18  9  2  0  0  0  0
 19  5  1  0  0  0  0
 19 18  1  0  0  0  0
 20 19  1  0  0  0  0
 21  2  1  0  0  0  0
 22 21  1  0  0  0  0
 22 25  1  0  0  0  0
 23 22  1  0  0  0  0
 24 22  1  0  0  0  0
 25  7  1  0  0  0  0
 25 26  1  0  0  0  0
 27 25  1  0  0  0  0
 28  3  2  0  0  0  0
 29 30  1  0  0  0  0
 30 31  1  0  0  0  0
 30 33  1  0  0  0  0
 30 32  1  0  0  0  0
 34 29  1  0  0  0  0
 34 36  1  0  0  0  0
 34 37  1  0  0  0  0
 35 34  1  0  0  0  0
 38 39  1  0  0  0  0
 38 40  1  0  0  0  0
 38 29  1  0  0  0  0
 41 38  1  0  0  0  0
M  CHG  2   1  -1   2  -1
M  END
