1,2,3
q = -2.0, confidence = 0.858

 39 40  0  0  1  0  0  0  0  0999 V2000
   -0.9834    0.2291    0.0689 O   0  0  0  0  0  1  0  0  0  0  0  0
    2.4380    1.6030   -0.1115 O   0  5  0  0  0  0  0  0  0  0  0  0
    0.1317    2.7561   -0.0254 N   0  0  0  0  0  2  0  0  0  0  0  0
    1.2340    3.6350   -0.0851 C   0  0  0  0  0  0  0  0  0  0  0  0
   -2.1303    0.8590    0.1348 C   0  0  1  0  0  3  0  0  0  0  0  0
   -5.7176   -0.1721    0.4559 N   0  0  0  0  0  0  0  0  0  0  0  0
    2.4736    2.9323   -0.1292 C   0  0  0  0  0  0  0  0  0  0  0  0
   -1.1283    3.1544    0.0197 C   0  0  0  0  0  0  0  0  0  0  0  0
   -1.3318    4.2418    0.0010 H   0  0  0  0  0  0  0  0  0  0  0  0
   -2.2574    2.2973    0.1042 C   0  0  0  0  0  0  0  0  0  0  0  0
   -4.7056    2.0602    0.2611 C   0  0  0  0  0  0  0  0  0  0  0  0
   -5.6863    2.5487    0.3010 H   0  0  0  0  0  0  0  0  0  0  0  0
   -3.3010    0.0667    0.2374 C   0  0  0  0  0  0  0  0  0  0  0  0
   -3.1317   -1.0158    0.2590 H   0  0  0  0  0  0  0  0  0  0  0  0
   -3.5714    2.8452    0.1654 C   0  0  0  0  0  0  0  0  0  0  0  0
   -3.6796    3.9415    0.1347 H   0  0  0  0  0  0  0  0  0  0  0  0
   -4.5930    0.6265    0.3143 C   0  0  0  0  0  0  0  0  0  0  0  0
    1.2098    5.0431   -0.0991 C   0  0  0  0  0  0  0  0  0  0  0  0
    0.2558    5.5898   -0.0634 H   0  0  0  0  0  0  0  0  0  0  0  0
    3.6819    3.6647   -0.1896 C   0  0  0  0  0  0  0  0  0  0  0  0
    4.6317    3.1107   -0.2187 H   0  0  0  0  0  0  0  0  0  0  0  0
    2.4153    5.7553   -0.1598 C   0  0  0  0  0  0  0  0  0  0  0  0
    2.3992    6.8551   -0.1715 H   0  0  0  0  0  0  0  0  0  0  0  0
   -7.0581    0.4002    0.4447 C   0  0  0  0  0  0  0  0  0  0  0  0
   -7.0722    1.3044    1.0898 H   0  0  0  0  0  0  0  0  0  0  0  0
   -7.7296   -0.3299    0.9420 H   0  0  0  0  0  0  0  0  0  0  0  0
    3.6440    5.0639   -0.2042 C   0  0  0  0  0  0  0  0  0  0  0  0
    4.5870    5.6304   -0.2504 H   0  0  0  0  0  0  0  0  0  0  0  0
   -7.6061    0.7431   -0.9460 C   0  0  0  0  0  0  0  0  0  0  0  0
   -8.6124    1.2030   -0.8659 H   0  0  0  0  0  0  0  0  0  0  0  0
   -6.9420    1.4591   -1.4698 H   0  0  0  0  0  0  0  0  0  0  0  0
   -7.6938   -0.1611   -1.5804 H   0  0  0  0  0  0  0  0  0  0  0  0
   -5.5955   -1.6247    0.4603 C   0  0  0  0  0  0  0  0  0  0  0  0
   -4.7311   -1.9093    1.0976 H   0  0  0  0  0  0  0  0  0  0  0  0
   -6.4948   -2.0300    0.9687 H   0  0  0  0  0  0  0  0  0  0  0  0
   -5.4493   -2.2671   -0.9250 C   0  0  0  0  0  0  0  0  0  0  0  0
   -5.3074   -3.3633   -0.8303 H   0  0  0  0  0  0  0  0  0  0  0  0
   -6.3468   -2.0926   -1.5509 H   0  0  0  0  0  0  0  0  0  0  0  0
   -4.5739   -1.8526   -1.4627 H   0  0  0  0  0  0  0  0  0  0  0  0
  3  8  1  0  0  0  0
  4  3  1  0  0  0  0
  5  1  1  6  0  0  0
  5 13  1  0  0  0  0
  6 33  1  0  0  0  0
  7  2  1  0  0  0  0
  7  4  2  0  0  0  0
  8 10  2  0  0  0  0
  9  8  1  0  0  0  0
 10  5  1  0  0  0  0
 10 15  1  0  0  0  0
 11 12  1  0  0  0  0
 11 17  1  0  0  0  0
 13 14  1  0  0  0  0
 13 17  2  0  0  0  0
 15 11  2  0  0  0  0
 16 15  1  0  0  0  0
 17  6  1  0  0  0  0
 18  4  1  0  0  0  0
 18 19  1  0  0  0  0
 20  7  1  0  0  0  0
 21 20  1  0  0  0  0
 22 18  2  0  0  0  0
 23 22  1  0  0  0  0
 24  6  1  0  0  0  0
 24 26  1  0  0  0  0
 24 25  1  0  0  0  0
 27 20  2  0  0  0  0
 27 22  1  0  0  0  0
 28 27  1  0  0  0  0
 29 30  1  0  0  0  0
 29 24  1  0  0  0  0
 31 29  1  0  0  0  0
 32 29  1  0  0  0  0
 33 35  1  0  0  0  0
 33 34  1  0  0  0  0
 36 37  1  0  0  0  0
 36 33  1  0  0  0  0
 38 36  1  0  0  0  0
 39 36  1  0  0  0  0
M  CHG  1   2  -1
M  END
