1,5,11
q = -2.0, confidence = 0.7

 21 20  0  0  0  0  0  0  0  0999 V2000
   -1.3101    0.2466   -0.0050 N   0  0  0  0  0  0  0  0  0  0  0  0
   -4.1449   -2.2100    0.0071 N   0  0  0  0  0  0  0  0  0  0  0  0
   -5.1633   -2.2620    0.0079 H   0  0  0  0  0  0  0  0  0  0  0  0
   -3.6026   -3.0721    0.0258 H   0  0  0  0  0  0  0  0  0  0  0  0
    0.7842    1.4268    1.3933 O   0  5  0  0  0  0  0  0  0  0  0  0
   -0.3886    1.8557    1.7637 C   0  0  0  0  0  0  0  0  0  0  0  0
   -0.6183    2.7865    2.5314 O   0  0  0  0  0  0  0  0  0  0  0  0
   -1.5834    1.0180    1.2431 C   0  0  0  0  0  0  0  0  0  0  0  0
   -1.8080    0.2886    2.0492 H   0  0  0  0  0  0  0  0  0  0  0  0
   -2.4754    1.6610    1.1210 H   0  0  0  0  0  0  0  0  0  0  0  0
    0.7969    1.4525   -1.3646 O   0  5  0  0  0  0  0  0  0  0  0  0
   -1.5748    1.0563   -1.2310 C   0  0  0  0  0  0  0  0  0  0  0  0
   -2.4607    1.7036   -1.0911 H   0  0  0  0  0  0  0  0  0  0  0  0
   -1.8072    0.3530   -2.0576 H   0  0  0  0  0  0  0  0  0  0  0  0
   -0.5936    2.8462   -2.4756 O   0  0  0  0  0  0  0  0  0  0  0  0
   -0.3723    1.8972   -1.7279 C   0  0  0  0  0  0  0  0  0  0  0  0
   -4.2119    0.0679   -0.0341 O   0  0  0  0  0  0  0  0  0  0  0  0
   -2.0216   -1.0401   -0.0254 C   0  0  0  0  0  0  0  0  0  0  0  0
   -1.6849   -1.6402    0.8460 H   0  0  0  0  0  0  0  0  0  0  0  0
   -1.6959   -1.6065   -0.9234 H   0  0  0  0  0  0  0  0  0  0  0  0
   -3.5572   -0.9692   -0.0171 C   0  0  0  0  0  0  0  0  0  0  0  0
  1  8  1  0  0  0  0
  2  3  1  0  0  0  0
  2  4  1  0  0  0  0
  5  6  1  0  0  0  0
  6  7  2  0  0  0  0
  8  6  1  0  0  0  0
  8  9  1  0  0  0  0
 10  8  1  0  0  0  0
 12 13  1  0  0  0  0
 12  1  1  0  0  0  0
 14 12  1  0  0  0  0
 15 16  2  0  0  0  0
 16 11  1  0  0  0  0
 16 12  1  0  0  0  0
 17 21  2  0  0  0  0
 18 21  1  0  0  0  0
 18  1  1  0  0  0  0
 18 19  1  0  0  0  0
 20 18  1  0  0  0  0
 21  2  1  0  0  0  0
M  CHG  2   5  -1  11  -1
M  END
