20,21,26
q = -1.0, confidence = 0.206

 29 29  0  0  0  0  0  0  0  0999 V2000
   -1.2122   -0.1534    0.0638 C   0  0  0  0  0  0  0  0  0  0  0  0
   -1.3818   -1.5634    0.1108 C   0  0  0  0  0  0  0  0  0  0  0  0
   -2.6885   -2.0894    0.0665 C   0  0  0  0  0  0  0  0  0  0  0  0
   -2.7617   -3.1858    0.1214 H   0  0  0  0  0  0  0  0  0  0  0  0
   -3.8143   -1.2735   -0.0439 C   0  0  0  0  0  0  0  0  0  0  0  0
   -4.8317   -1.6869   -0.0960 H   0  0  0  0  0  0  0  0  0  0  0  0
   -3.6448    0.1243   -0.0828 C   0  0  0  0  0  0  0  0  0  0  0  0
   -2.3499    0.6716   -0.0110 C   0  0  0  0  0  0  0  0  0  0  0  0
   -2.2487    1.7629   -0.0014 H   0  0  0  0  0  0  0  0  0  0  0  0
   -0.2633   -2.5981    0.1950 C   0  0  0  0  0  0  0  0  0  0  0  0
   -4.8518    0.9851   -0.1837 C   0  0  0  0  0  0  0  0  0  0  0  0
    0.2027    1.8341   -0.3517 C   0  0  0  0  0  0  0  0  0  0  0  0
   -0.0855    2.6039    0.3918 H   0  0  0  0  0  0  0  0  0  0  0  0
   -0.4911    1.8961   -1.2128 H   0  0  0  0  0  0  0  0  0  0  0  0
    1.5938    2.1416   -0.9315 C   0  0  0  0  0  0  0  0  0  0  0  0
    0.4624    0.4681    1.6920 C   0  0  0  0  0  0  0  0  0  0  0  0
    0.2440   -0.5454    2.0806 H   0  0  0  0  0  0  0  0  0  0  0  0
   -0.1964    1.2024    2.2024 H   0  0  0  0  0  0  0  0  0  0  0  0
    1.9676    0.7796    2.0231 C   0  0  0  0  0  0  0  0  0  0  0  0
    0.1095    0.4571    0.2238 N   0  0  0  0  0  0  0  0  0  0  0  0
    0.9442   -2.2021   -0.0867 O   0  5  0  0  0  0  0  0  0  0  0  0
   -0.5478   -3.7628    0.4944 O   0  0  0  0  0  0  0  0  0  0  0  0
   -6.0049    0.5825   -0.2376 O   0  0  0  0  0  0  0  0  0  0  0  0
   -4.5587    2.3175   -0.2133 O   0  0  0  0  0  0  0  0  0  0  0  0
   -5.4318    2.7591   -0.2766 H   0  0  0  0  0  0  0  0  0  0  0  0
    2.2303    1.0605   -1.3116 O   0  5  0  0  0  0  0  0  0  0  0  0
    1.9737    3.2932   -1.0966 O   0  0  0  0  0  0  0  0  0  0  0  0
    2.7841    0.0526    1.3587 O   0  5  0  0  0  0  0  0  0  0  0  0
    2.1788    1.6134    2.9115 O   0  0  0  0  0  0  0  0  0  0  0  0
  1  2  1  0  0  0  0
  1 20  1  0  0  0  0
  2 10  1  0  0  0  0
  3  2  2  0  0  0  0
  3  4  1  0  0  0  0
  5  3  1  0  0  0  0
  6  5  1  0  0  0  0
  7  5  2  0  0  0  0
  7  8  1  0  0  0  0
  8  9  1  0  0  0  0
  8  1  2  0  0  0  0
 10 22  2  0  0  0  0
 11  7  1  0  0  0  0
 12 20  1  0  0  0  0
 12 13  1  0  0  0  0
 14 12  1  0  0  0  0
 15 12  1  0  0  0  0
 16 19  1  0  0  0  0
 16 17  1  0  0  0  0
 16 18  1  0  0  0  0
 19 29  2  0  0  0  0
 20 16  1  0  0  0  0
 21 10  1  0  0  0  0
 23 11  2  0  0  0  0
 24 11  1  0  0  0  0
 25 24  1  0  0  0  0
 26 15  1  0  0  0  0
 27 15  2  0  0  0  0
 28 19  1  0  0  0  0
M  CHG  3  21  -1  26  -1  28  -1
M  END
