1,2,3
q = -2.0, confidence = 0.972

 29 29  0  0  1  0  0  0  0  0999 V2000
   -2.1374   -1.0972   -0.4950 N   0  0  0  0  0  0  0  0  0  0  0  0
   -1.3721    1.4474   -0.0456 O   0  0  0  0  0  1  0  0  0  0  0  0
    0.2383   -0.6354   -1.6472 O   0  0  0  0  0  1  0  0  0  0  0  0
   -2.1263   -2.4228    0.1114 C   0  0  0  0  0  0  0  0  0  0  0  0
   -3.0494   -3.0109   -0.1116 H   0  0  0  0  0  0  0  0  0  0  0  0
   -2.0114   -2.3169    1.2064 H   0  0  0  0  0  0  0  0  0  0  0  0
   -1.2597   -3.0024   -0.2643 H   0  0  0  0  0  0  0  0  0  0  0  0
   -2.0887   -1.1379   -1.9586 C   0  0  0  0  0  0  0  0  0  0  0  0
   -2.3852   -0.1426   -2.3435 H   0  0  0  0  0  0  0  0  0  0  0  0
   -2.7915   -1.8894   -2.3955 H   0  0  0  0  0  0  0  0  0  0  0  0
   -0.6406   -1.4140   -2.3929 C   0  0  0  0  0  0  0  0  0  0  0  0
   -0.4027   -2.5022   -2.2698 H   0  0  0  0  0  0  0  0  0  0  0  0
   -0.5397   -1.2016   -3.4846 H   0  0  0  0  0  0  0  0  0  0  0  0
   -3.1255   -0.1857    0.1079 C   0  0  1  0  0  0  0  0  0  0  0  0
   -2.9652   -0.2923    1.2040 H   0  0  0  0  0  0  0  0  0  0  0  0
   -2.7425    1.2683   -0.2301 C   0  0  1  0  0  0  0  0  0  0  0  0
   -2.9978    1.4643   -1.3054 H   0  0  0  0  0  0  0  0  0  0  0  0
   -3.5920    2.2329    0.6069 C   0  0  0  0  0  0  0  0  0  0  0  0
   -3.3034    3.2752    0.3619 H   0  0  0  0  0  0  0  0  0  0  0  0
   -3.3451    2.0737    1.6794 H   0  0  0  0  0  0  0  0  0  0  0  0
   -5.0872    1.9928    0.3532 C   0  0  0  0  0  0  0  0  0  0  0  0
   -5.6992    2.6705    0.9841 H   0  0  0  0  0  0  0  0  0  0  0  0
   -5.3232    2.2565   -0.7024 H   0  0  0  0  0  0  0  0  0  0  0  0
   -5.4848    0.5303    0.6038 C   0  0  0  0  0  0  0  0  0  0  0  0
   -5.3729    0.3044    1.6879 H   0  0  0  0  0  0  0  0  0  0  0  0
   -6.5569    0.3734    0.3622 H   0  0  0  0  0  0  0  0  0  0  0  0
   -4.6087   -0.4470   -0.1960 C   0  0  0  0  0  0  0  0  0  0  0  0
   -4.7945   -0.3139   -1.2852 H   0  0  0  0  0  0  0  0  0  0  0  0
   -4.8783   -1.4962    0.0480 H   0  0  0  0  0  0  0  0  0  0  0  0
  1 14  1  0  0  0  0
  1  4  1  0  0  0  0
  4  6  1  0  0  0  0
  5  4  1  0  0  0  0
  7  4  1  0  0  0  0
  8  1  1  0  0  0  0
  9  8  1  0  0  0  0
 10  8  1  0  0  0  0
 11 12  1  0  0  0  0
 11  8  1  0  0  0  0
 11  3  1  0  0  0  0
 13 11  1  0  0  0  0
 14 15  1  1  0  0  0
 16 17  1  6  0  0  0
 16  2  1  0  0  0  0
 16 14  1  0  0  0  0
 16 18  1  0  0  0  0
 18 20  1  0  0  0  0
 19 18  1  0  0  0  0
 21 24  1  0  0  0  0
 21 18  1  0  0  0  0
 21 22  1  0  0  0  0
 23 21  1  0  0  0  0
 24 25  1  0  0  0  0
 26 24  1  0  0  0  0
 27 29  1  0  0  0  0
 27 14  1  0  0  0  0
 27 24  1  0  0  0  0
 28 27  1  0  0  0  0
M  END
