1,3,4
q = -2.0, confidence = 0.858

 31 32  0  0  0  0  0  0  0  0999 V2000
   -0.1039    0.8296    0.0109 N   0  0  0  0  0  2  0  0  0  0  0  0
    1.2092    1.1785    0.1160 N   0  0  0  0  0  0  0  0  0  0  0  0
   -2.2972   -0.8248   -0.0012 O   0  5  0  0  0  0  0  0  0  0  0  0
    1.4835   -1.0851   -0.2859 O   0  5  0  0  0  0  0  0  0  0  0  0
   -5.2195   -1.5216   -0.0446 Br  0  0  0  0  0  0  0  0  0  0  0  0
   -2.4217    1.5945    0.0248 C   0  0  0  0  0  0  0  0  0  0  0  0
   -3.0123    0.2890   -0.0157 C   0  0  0  0  0  0  0  0  0  0  0  0
   -4.4311    0.1986   -0.0249 C   0  0  0  0  0  0  0  0  0  0  0  0
   -5.2395    1.3394   -0.0111 C   0  0  0  0  0  0  0  0  0  0  0  0
   -6.3331    1.2418   -0.0230 H   0  0  0  0  0  0  0  0  0  0  0  0
   -4.6400    2.6143    0.0210 C   0  0  0  0  0  0  0  0  0  0  0  0
   -3.2519    2.7443    0.0456 C   0  0  0  0  0  0  0  0  0  0  0  0
   -2.7952    3.7436    0.0772 H   0  0  0  0  0  0  0  0  0  0  0  0
   -0.9924    1.7913    0.0853 C   0  0  0  0  0  3  0  0  0  0  0  0
   -0.6086    2.8232    0.1968 H   0  0  0  0  0  0  0  0  0  0  0  0
    1.9767    0.1183   -0.0713 C   0  0  0  0  0  0  0  0  0  0  0  0
    3.4447    0.2560   -0.0295 C   0  0  0  0  0  0  0  0  0  0  0  0
    4.2592   -0.8807   -0.2151 C   0  0  0  0  0  0  0  0  0  0  0  0
    3.7812   -1.8549   -0.3884 H   0  0  0  0  0  0  0  0  0  0  0  0
    5.6521   -0.7599   -0.1741 C   0  0  0  0  0  0  0  0  0  0  0  0
    6.2906   -1.6439   -0.3116 H   0  0  0  0  0  0  0  0  0  0  0  0
    6.2408    0.4960    0.0527 C   0  0  0  0  0  0  0  0  0  0  0  0
    5.4323    1.6334    0.2420 C   0  0  0  0  0  0  0  0  0  0  0  0
    5.9013    2.6100    0.4286 H   0  0  0  0  0  0  0  0  0  0  0  0
    4.0417    1.5158    0.1997 C   0  0  0  0  0  0  0  0  0  0  0  0
    3.3928    2.3904    0.3444 H   0  0  0  0  0  0  0  0  0  0  0  0
    7.7453    0.6431    0.0419 C   0  0  0  0  0  0  0  0  0  0  0  0
   -5.6510    4.0330    0.0356 Cl  0  0  0  0  0  0  0  0  0  0  0  0
    8.1593    1.5976    0.9096 F   0  0  0  0  0  0  0  0  0  0  0  0
    8.3681   -0.5118    0.3729 F   0  0  0  0  0  0  0  0  0  0  0  0
    8.1934    1.0023   -1.1869 F   0  0  0  0  0  0  0  0  0  0  0  0
  1 14  1  0  0  0  0
  1  2  1  0  0  0  0
  4 16  1  0  0  0  0
  5  8  1  0  0  0  0
  6 12  1  0  0  0  0
  6 14  1  0  0  0  0
  7  3  1  0  0  0  0
  7  6  2  0  0  0  0
  8  7  1  0  0  0  0
  8  9  2  0  0  0  0
  9 11  1  0  0  0  0
 10  9  1  0  0  0  0
 11 28  1  0  0  0  0
 11 12  2  0  0  0  0
 12 13  1  0  0  0  0
 14 15  1  0  0  0  0
 16 17  1  0  0  0  0
 16  2  2  0  0  0  0
 17 25  1  0  0  0  0
 18 20  1  0  0  0  0
 18 17  2  0  0  0  0
 19 18  1  0  0  0  0
 20 22  2  0  0  0  0
 21 20  1  0  0  0  0
 22 23  1  0  0  0  0
 23 24  1  0  0  0  0
 25 23  2  0  0  0  0
 25 26  1  0  0  0  0
 27 22  1  0  0  0  0
 27 30  1  0  0  0  0
 27 29  1  0  0  0  0
 31 27  1  0  0  0  0
M  CHG  2   3  -1   4  -1
M  END
