1,7,8
q = -2.0, confidence = 0.798

 29 30  0  0  0  0  0  0  0  0999 V2000
    0.2610    0.6191   -0.0595 N   0  0  0  0  0  2  0  0  0  0  0  0
    1.4102    1.3460    0.0266 N   0  0  0  0  0  0  0  0  0  0  0  0
    6.4319    2.1836   -0.0081 N   0  0  0  0  0  0  0  0  0  0  0  0
   -5.7606    1.8621   -0.1296 N   0  0  0  0  0  0  0  0  0  0  0  0
   -5.5425    3.0743   -0.1315 O   0  0  0  0  0  0  0  0  0  0  0  0
   -6.8748    1.3386   -0.1498 O   0  0  0  0  0  0  0  0  0  0  0  0
   -1.3560   -1.6017    0.0489 O   0  5  0  0  0  0  0  0  0  0  0  0
    2.3431   -0.7492   -0.2644 O   0  5  0  0  0  0  0  0  0  0  0  0
   -2.1765    0.6709   -0.0446 C   0  0  0  0  0  0  0  0  0  0  0  0
   -2.3702   -0.7532   -0.0279 C   0  0  0  0  0  0  0  0  0  0  0  0
   -3.6858   -1.2785   -0.0535 C   0  0  0  0  0  0  0  0  0  0  0  0
   -3.8011   -2.3713   -0.0427 H   0  0  0  0  0  0  0  0  0  0  0  0
   -4.7913   -0.4324   -0.0909 C   0  0  0  0  0  0  0  0  0  0  0  0
   -5.8194   -0.8181   -0.1132 H   0  0  0  0  0  0  0  0  0  0  0  0
   -4.5898    0.9606   -0.0979 C   0  0  0  0  0  0  0  0  0  0  0  0
   -3.3117    1.5124   -0.0723 C   0  0  0  0  0  0  0  0  0  0  0  0
   -3.2070    2.6064   -0.0790 H   0  0  0  0  0  0  0  0  0  0  0  0
   -0.8694    1.2802   -0.0027 C   0  0  0  0  0  3  0  0  0  0  0  0
   -0.8031    2.3814    0.0787 H   0  0  0  0  0  0  0  0  0  0  0  0
    2.4574    0.5558   -0.1075 C   0  0  0  0  0  0  0  0  0  0  0  0
    3.8199    1.1219   -0.0739 C   0  0  0  0  0  0  0  0  0  0  0  0
    4.9431    0.2849   -0.2204 C   0  0  0  0  0  0  0  0  0  0  0  0
    4.8098   -0.7966   -0.3636 H   0  0  0  0  0  0  0  0  0  0  0  0
    6.2180    0.8692   -0.1799 C   0  0  0  0  0  0  0  0  0  0  0  0
    7.1165    0.2367   -0.2931 H   0  0  0  0  0  0  0  0  0  0  0  0
    5.3529    2.9740    0.1299 C   0  0  0  0  0  0  0  0  0  0  0  0
    5.5502    4.0520    0.2688 H   0  0  0  0  0  0  0  0  0  0  0  0
    4.0333    2.5041    0.1045 C   0  0  0  0  0  0  0  0  0  0  0  0
    3.1758    3.1816    0.2190 H   0  0  0  0  0  0  0  0  0  0  0  0
  1 18  1  0  0  0  0
  1  2  1  0  0  0  0
  3 26  1  0  0  0  0
  4 15  1  0  0  0  0
  5  4  2  0  0  0  0
  6  4  2  0  0  0  0
  8 20  1  0  0  0  0
  9 10  1  0  0  0  0
  9 18  1  0  0  0  0
 10  7  1  0  0  0  0
 11 12  1  0  0  0  0
 11 10  2  0  0  0  0
 13 11  1  0  0  0  0
 14 13  1  0  0  0  0
 15 13  2  0  0  0  0
 15 16  1  0  0  0  0
 16  9  2  0  0  0  0
 17 16  1  0  0  0  0
 18 19  1  0  0  0  0
 20 21  1  0  0  0  0
 20  2  2  0  0  0  0
 21 28  1  0  0  0  0
 22 24  1  0  0  0  0
 22 21  2  0  0  0  0
 23 22  1  0  0  0  0
 24  3  2  0  0  0  0
 25 24  1  0  0  0  0
 26 27  1  0  0  0  0
 28 26  2  0  0  0  0
 28 29  1  0  0  0  0
M  CHG  2   7  -1   8  -1
M  END
