1,2,3
q = -2.0, confidence = 0.932

 33 34  0  0  0  0  0  0  0  0999 V2000
    3.0101    0.9121   -0.5373 O   0  0  0  0  0  1  0  0  0  0  0  0
    0.3591   -1.4793   -0.0135 O   0  5  0  0  0  0  0  0  0  0  0  0
    0.5959    1.1494    0.0517 N   0  0  0  0  0  2  0  0  0  0  0  0
    2.8056    1.8670    0.4619 C   0  0  0  0  0  0  0  0  0  0  0  0
    2.9186    1.4196    1.4777 H   0  0  0  0  0  0  0  0  0  0  0  0
    1.3634    2.3991    0.3009 C   0  0  0  0  0  0  0  0  0  0  0  0
   -0.6994    1.1300    0.1978 C   0  0  0  0  0  3  0  0  0  0  0  0
   -1.5474   -0.0194    0.0361 C   0  0  0  0  0  0  0  0  0  0  0  0
   -0.9469   -1.3092    0.0044 C   0  0  0  0  0  0  0  0  0  0  0  0
   -1.7746   -2.4765    0.0585 C   0  0  0  0  0  0  0  0  0  0  0  0
   -1.2707   -3.4533    0.0557 H   0  0  0  0  0  0  0  0  0  0  0  0
   -3.1472   -2.3617    0.0911 C   0  0  0  0  0  0  0  0  0  0  0  0
   -3.7737   -3.2674    0.1158 H   0  0  0  0  0  0  0  0  0  0  0  0
   -5.2152   -0.9846    0.0905 C   0  0  0  0  0  0  0  0  0  0  0  0
   -5.8076   -1.9127    0.1133 H   0  0  0  0  0  0  0  0  0  0  0  0
   -5.8441    0.2530    0.0700 C   0  0  0  0  0  0  0  0  0  0  0  0
   -6.9420    0.3210    0.0786 H   0  0  0  0  0  0  0  0  0  0  0  0
   -5.0590    1.4303    0.0270 C   0  0  0  0  0  0  0  0  0  0  0  0
   -5.5508    2.4144   -0.0041 H   0  0  0  0  0  0  0  0  0  0  0  0
   -3.6698    1.3586    0.0113 C   0  0  0  0  0  0  0  0  0  0  0  0
   -3.0954    2.2938   -0.0518 H   0  0  0  0  0  0  0  0  0  0  0  0
   -2.9921    0.1073    0.0480 C   0  0  0  0  0  0  0  0  0  0  0  0
   -3.7968   -1.0868    0.0788 C   0  0  0  0  0  0  0  0  0  0  0  0
    1.2566    3.2796   -0.9562 C   0  0  0  0  0  0  0  0  0  0  0  0
    0.2031    3.5739   -1.1391 H   0  0  0  0  0  0  0  0  0  0  0  0
    1.6250    2.7246   -1.8403 H   0  0  0  0  0  0  0  0  0  0  0  0
    1.8603    4.2006   -0.8329 H   0  0  0  0  0  0  0  0  0  0  0  0
    0.9175    3.1462    1.5605 C   0  0  0  0  0  0  0  0  0  0  0  0
   -0.0747    3.6258    1.4390 H   0  0  0  0  0  0  0  0  0  0  0  0
    1.6400    3.9560    1.7857 H   0  0  0  0  0  0  0  0  0  0  0  0
    0.8773    2.4644    2.4332 H   0  0  0  0  0  0  0  0  0  0  0  0
    3.5400    2.6982    0.3555 H   0  0  0  0  0  0  0  0  0  0  0  0
   -1.1948    2.0667    0.5173 H   0  0  0  0  0  0  0  0  0  0  0  0
  1  4  1  0  0  0  0
  2  9  1  0  0  0  0
  3  7  1  0  0  0  0
  3  6  1  0  0  0  0
  4  5  1  0  0  0  0
  6  4  1  0  0  0  0
  6 28  1  0  0  0  0
  7 33  1  0  0  0  0
  8 22  1  0  0  0  0
  8  7  1  0  0  0  0
  9  8  2  0  0  0  0
  9 10  1  0  0  0  0
 10 12  2  0  0  0  0
 11 10  1  0  0  0  0
 12 13  1  0  0  0  0
 14 15  1  0  0  0  0
 16 17  1  0  0  0  0
 16 14  2  0  0  0  0
 18 16  1  0  0  0  0
 19 18  1  0  0  0  0
 20 18  2  0  0  0  0
 20 22  1  0  0  0  0
 21 20  1  0  0  0  0
 22 23  2  0  0  0  0
 23 14  1  0  0  0  0
 23 12  1  0  0  0  0
 24 27  1  0  0  0  0
 24  6  1  0  0  0  0
 25 24  1  0  0  0  0
 26 24  1  0  0  0  0
 28 30  1  0  0  0  0
 28 31  1  0  0  0  0
 29 28  1  0  0  0  0
 32  4  1  0  0  0  0
M  CHG  1   2  -1
M  END
