1,2,3
q = -2.0, confidence = 0.906

 27 27  0  0  1  0  0  0  0  0999 V2000
   -2.5918   -0.2426   -0.5917 O   0  0  0  0  0  1  0  0  0  0  0  0
    0.9356   -1.1735    0.3912 O   0  5  0  0  0  0  0  0  0  0  0  0
   -0.3537    1.0158   -0.6471 N   0  0  0  0  0  2  0  0  0  0  0  0
   -2.5915    0.8935   -1.4199 C   0  0  0  0  0  0  0  0  0  0  0  0
   -3.5978    1.3666   -1.4026 H   0  0  0  0  0  0  0  0  0  0  0  0
   -2.3533    0.6062   -2.4721 H   0  0  0  0  0  0  0  0  0  0  0  0
   -1.5214    1.8642   -0.8889 C   0  0  1  0  0  0  0  0  0  0  0  0
   -1.2798    2.6382   -1.6550 H   0  0  0  0  0  0  0  0  0  0  0  0
   -1.9782    2.5613    0.4099 C   0  0  0  0  0  0  0  0  0  0  0  0
   -2.2391    1.7753    1.1471 H   0  0  0  0  0  0  0  0  0  0  0  0
   -2.9155    3.1059    0.1666 H   0  0  0  0  0  0  0  0  0  0  0  0
   -0.9561    3.5279    1.0021 C   0  0  0  0  0  0  0  0  0  0  0  0
   -0.0267    3.0088    1.3145 H   0  0  0  0  0  0  0  0  0  0  0  0
   -1.3638    4.0287    1.9027 H   0  0  0  0  0  0  0  0  0  0  0  0
   -0.6693    4.3228    0.2812 H   0  0  0  0  0  0  0  0  0  0  0  0
    0.8494    1.4822   -0.8001 C   0  0  0  0  0  3  0  0  0  0  0  0
    0.9755    2.5224   -1.1714 H   0  0  0  0  0  0  0  0  0  0  0  0
    2.0674    0.7664   -0.5071 C   0  0  0  0  0  0  0  0  0  0  0  0
    2.0529   -0.5328    0.1027 C   0  0  0  0  0  0  0  0  0  0  0  0
    3.2915   -1.1382    0.4367 C   0  0  0  0  0  0  0  0  0  0  0  0
    3.2621   -2.1313    0.9071 H   0  0  0  0  0  0  0  0  0  0  0  0
    4.4971   -0.4954    0.1563 C   0  0  0  0  0  0  0  0  0  0  0  0
    5.4449   -0.9935    0.4130 H   0  0  0  0  0  0  0  0  0  0  0  0
    4.5186    0.7791   -0.4528 C   0  0  0  0  0  0  0  0  0  0  0  0
    5.4746    1.2764   -0.6703 H   0  0  0  0  0  0  0  0  0  0  0  0
    3.3122    1.3967   -0.7702 C   0  0  0  0  0  0  0  0  0  0  0  0
    3.3047    2.3955   -1.2356 H   0  0  0  0  0  0  0  0  0  0  0  0
  4  5  1  0  0  0  0
  4  7  1  0  0  0  0
  4  1  1  0  0  0  0
  6  4  1  0  0  0  0
  7  8  1  6  0  0  0
  7  3  1  0  0  0  0
  7  9  1  0  0  0  0
  9 12  1  0  0  0  0
  9 10  1  0  0  0  0
 11  9  1  0  0  0  0
 12 13  1  0  0  0  0
 12 14  1  0  0  0  0
 15 12  1  0  0  0  0
 16  3  1  0  0  0  0
 16 18  1  0  0  0  0
 17 16  1  0  0  0  0
 18 19  1  0  0  0  0
 19  2  1  0  0  0  0
 19 20  2  0  0  0  0
 20 21  1  0  0  0  0
 22 23  1  0  0  0  0
 22 20  1  0  0  0  0
 24 22  2  0  0  0  0
 25 24  1  0  0  0  0
 26 18  2  0  0  0  0
 26 24  1  0  0  0  0
 27 26  1  0  0  0  0
M  CHG  1   2  -1
M  END
