1,2,3
q = -2.0, confidence = 0.958

 41 41  0  0  1  0  0  0  0  0999 V2000
    0.0004    0.7279   -0.0007 N   0  0  0  0  0  2  0  0  0  0  0  0
    1.6022   -0.8878   -0.9141 O   0  0  0  0  0  1  0  0  0  0  0  0
   -1.6005   -0.8869    0.9158 O   0  0  0  0  0  1  0  0  0  0  0  0
    4.3530   -0.7528   -0.3705 C   0  0  0  0  0  0  0  0  0  0  0  0
    5.2564   -0.8005    0.2707 H   0  0  0  0  0  0  0  0  0  0  0  0
    4.6849   -0.6047   -1.4190 H   0  0  0  0  0  0  0  0  0  0  0  0
    3.8246   -1.7226   -0.3127 H   0  0  0  0  0  0  0  0  0  0  0  0
    3.0077    0.1670    1.5499 C   0  0  0  0  0  0  0  0  0  0  0  0
    3.9004    0.1277    2.2064 H   0  0  0  0  0  0  0  0  0  0  0  0
    2.4624   -0.7899    1.6730 H   0  0  0  0  0  0  0  0  0  0  0  0
    2.3617    0.9894    1.9225 H   0  0  0  0  0  0  0  0  0  0  0  0
    4.1950    1.7289   -0.0299 C   0  0  0  0  0  0  0  0  0  0  0  0
    5.1594    1.6614    0.5129 H   0  0  0  0  0  0  0  0  0  0  0  0
    3.6343    2.5745    0.4159 H   0  0  0  0  0  0  0  0  0  0  0  0
    4.4269    1.9771   -1.0873 H   0  0  0  0  0  0  0  0  0  0  0  0
    3.4386    0.3959    0.0912 C   0  0  0  0  0  0  0  0  0  0  0  0
    2.1829    0.3843   -0.8616 C   0  0  2  0  0  0  0  0  0  0  0  0
    2.5510    0.6568   -1.8814 H   0  0  0  0  0  0  0  0  0  0  0  0
    1.0967    1.3650   -0.4601 C   0  0  2  0  0  3  0  0  0  0  0  0
    1.1129    2.7669   -0.5019 C   0  0  0  0  0  0  0  0  0  0  0  0
    1.9784    3.3031   -0.9114 H   0  0  0  0  0  0  0  0  0  0  0  0
    0.0004    3.4626   -0.0019 C   0  0  0  0  0  0  0  0  0  0  0  0
    0.0004    4.5633   -0.0025 H   0  0  0  0  0  0  0  0  0  0  0  0
   -1.1120    2.7673    0.4990 C   0  0  0  0  0  0  0  0  0  0  0  0
   -1.9773    3.3039    0.9082 H   0  0  0  0  0  0  0  0  0  0  0  0
   -1.0957    1.3654    0.4586 C   0  0  0  0  0  0  0  0  0  0  0  0
   -2.1814    0.3851    0.8622 C   0  0  1  0  0  0  0  0  0  0  0  0
   -2.5482    0.6587    1.8823 H   0  0  0  0  0  0  0  0  0  0  0  0
   -3.4385    0.3962   -0.0887 C   0  0  0  0  0  0  0  0  0  0  0  0
   -3.0100    0.1685   -1.5484 C   0  0  0  0  0  0  0  0  0  0  0  0
   -2.4643   -0.7880   -1.6732 H   0  0  0  0  0  0  0  0  0  0  0  0
   -2.3651    0.9916   -1.9214 H   0  0  0  0  0  0  0  0  0  0  0  0
   -3.9039    0.1292   -2.2033 H   0  0  0  0  0  0  0  0  0  0  0  0
   -4.1954    1.7287    0.0344 C   0  0  0  0  0  0  0  0  0  0  0  0
   -5.1605    1.6610   -0.5072 H   0  0  0  0  0  0  0  0  0  0  0  0
   -3.6358    2.5749   -0.4115 H   0  0  0  0  0  0  0  0  0  0  0  0
   -4.4261    1.9759    1.0923 H   0  0  0  0  0  0  0  0  0  0  0  0
   -4.3516   -0.7533    0.3738 C   0  0  0  0  0  0  0  0  0  0  0  0
   -5.2562   -0.8009   -0.2657 H   0  0  0  0  0  0  0  0  0  0  0  0
   -4.6815   -0.6063    1.4231 H   0  0  0  0  0  0  0  0  0  0  0  0
   -3.8229   -1.7229    0.3142 H   0  0  0  0  0  0  0  0  0  0  0  0
  1 26  1  0  0  0  0
  2 17  1  0  0  0  0
  4  7  1  0  0  0  0
  4 16  1  0  0  0  0
  4  5  1  0  0  0  0
  6  4  1  0  0  0  0
  8 10  1  0  0  0  0
  8 11  1  0  0  0  0
  8  9  1  0  0  0  0
 12 16  1  0  0  0  0
 12 14  1  0  0  0  0
 12 13  1  0  0  0  0
 15 12  1  0  0  0  0
 16  8  1  0  0  0  0
 17 18  1  6  0  0  0
 17 16  1  0  0  0  0
 19 17  1  1  0  0  0
 19  1  1  0  0  0  0
 20 19  1  0  0  0  0
 20 22  2  0  0  0  0
 21 20  1  0  0  0  0
 22 24  1  0  0  0  0
 23 22  1  0  0  0  0
 24 25  1  0  0  0  0
 26 24  2  0  0  0  0
 26 27  1  0  0  0  0
 27  3  1  0  0  0  0
 27 28  1  1  0  0  0
 29 34  1  0  0  0  0
 29 38  1  0  0  0  0
 29 27  1  0  0  0  0
 30 29  1  0  0  0  0
 31 30  1  0  0  0  0
 32 30  1  0  0  0  0
 33 30  1  0  0  0  0
 34 37  1  0  0  0  0
 35 34  1  0  0  0  0
 36 34  1  0  0  0  0
 38 40  1  0  0  0  0
 39 38  1  0  0  0  0
 41 38  1  0  0  0  0
M  END
