1,3,4
q = -2.0, confidence = 0.908

 37 37  0  0  0  0  0  0  0  0999 V2000
    0.3181   -2.1176    0.0246 N   0  0  0  0  0  2  0  0  0  0  0  0
   -0.8041   -2.8815    0.2071 N   0  0  0  0  0  0  0  0  0  0  0  0
    1.7140    0.1274   -0.1047 O   0  5  0  0  0  0  0  0  0  0  0  0
   -1.7537   -0.9615   -0.5948 O   0  5  0  0  0  0  0  0  0  0  0  0
    4.0292    1.4088   -0.1163 O   0  0  0  0  0  0  0  0  0  0  0  0
    2.7459   -1.9992    0.2710 C   0  0  0  0  0  0  0  0  0  0  0  0
    2.8061   -0.5904    0.0637 C   0  0  0  0  0  0  0  0  0  0  0  0
    4.0777    0.0681    0.0805 C   0  0  0  0  0  0  0  0  0  0  0  0
    5.2418   -0.6856    0.2906 C   0  0  0  0  0  0  0  0  0  0  0  0
    6.2220   -0.1903    0.2974 H   0  0  0  0  0  0  0  0  0  0  0  0
    5.1720   -2.0828    0.4961 C   0  0  0  0  0  0  0  0  0  0  0  0
    6.1003   -2.6493    0.6590 H   0  0  0  0  0  0  0  0  0  0  0  0
    3.9439   -2.7330    0.4948 C   0  0  0  0  0  0  0  0  0  0  0  0
    3.8798   -3.8191    0.6587 H   0  0  0  0  0  0  0  0  0  0  0  0
    1.4725   -2.6649    0.3224 C   0  0  0  0  0  3  0  0  0  0  0  0
    1.4379   -3.7194    0.6526 H   0  0  0  0  0  0  0  0  0  0  0  0
   -1.8622   -2.1864   -0.1482 C   0  0  0  0  0  0  0  0  0  0  0  0
   -3.2653   -2.7631   -0.0348 C   0  0  0  0  0  0  0  0  0  0  0  0
   -4.0555   -1.8585    0.9383 C   0  0  0  0  0  0  0  0  0  0  0  0
   -3.5905   -1.8588    1.9449 H   0  0  0  0  0  0  0  0  0  0  0  0
   -5.0979   -2.2243    1.0358 H   0  0  0  0  0  0  0  0  0  0  0  0
   -4.0794   -0.8138    0.5711 H   0  0  0  0  0  0  0  0  0  0  0  0
   -3.9174   -2.7155   -1.4335 C   0  0  0  0  0  0  0  0  0  0  0  0
   -3.9160   -1.6827   -1.8329 H   0  0  0  0  0  0  0  0  0  0  0  0
   -4.9657   -3.0730   -1.3765 H   0  0  0  0  0  0  0  0  0  0  0  0
   -3.3703   -3.3619   -2.1490 H   0  0  0  0  0  0  0  0  0  0  0  0
   -3.2241   -4.2048    0.4906 C   0  0  0  0  0  0  0  0  0  0  0  0
   -2.6424   -4.8601   -0.1859 H   0  0  0  0  0  0  0  0  0  0  0  0
   -4.2554   -4.6052    0.5704 H   0  0  0  0  0  0  0  0  0  0  0  0
   -2.7468   -4.2535    1.4881 H   0  0  0  0  0  0  0  0  0  0  0  0
    5.2500    2.1404   -0.1228 C   0  0  0  0  0  0  0  0  0  0  0  0
    5.9246    1.7464   -0.9194 H   0  0  0  0  0  0  0  0  0  0  0  0
    5.7784    2.0071    0.8509 H   0  0  0  0  0  0  0  0  0  0  0  0
    4.9168    3.6000   -0.3659 C   0  0  0  0  0  0  0  0  0  0  0  0
    4.3981    3.7251   -1.3367 H   0  0  0  0  0  0  0  0  0  0  0  0
    5.8425    4.2082   -0.3800 H   0  0  0  0  0  0  0  0  0  0  0  0
    4.2530    3.9870    0.4320 H   0  0  0  0  0  0  0  0  0  0  0  0
  1  2  1  0  0  0  0
  1 15  1  0  0  0  0
  3  7  1  0  0  0  0
  4 17  1  0  0  0  0
  5  8  1  0  0  0  0
  6 15  1  0  0  0  0
  6 13  1  0  0  0  0
  7  8  1  0  0  0  0
  7  6  2  0  0  0  0
  8  9  2  0  0  0  0
  9 10  1  0  0  0  0
  9 11  1  0  0  0  0
 11 12  1  0  0  0  0
 13 11  2  0  0  0  0
 13 14  1  0  0  0  0
 15 16  1  0  0  0  0
 17 18  1  0  0  0  0
 17  2  2  0  0  0  0
 18 27  1  0  0  0  0
 18 19  1  0  0  0  0
 19 21  1  0  0  0  0
 19 20  1  0  0  0  0
 22 19  1  0  0  0  0
 23 25  1  0  0  0  0
 23 18  1  0  0  0  0
 24 23  1  0  0  0  0
 26 23  1  0  0  0  0
 27 29  1  0  0  0  0
 27 30  1  0  0  0  0
 28 27  1  0  0  0  0
 31  5  1  0  0  0  0
 31 33  1  0  0  0  0
 32 31  1  0  0  0  0
 34 31  1  0  0  0  0
 34 37  1  0  0  0  0
 35 34  1  0  0  0  0
 36 34  1  0  0  0  0
M  CHG  2   3  -1   4  -1
M  END
