1,2,4
q = -2.0, confidence = 0.924

 38 40  0  0  1  0  0  0  0  0999 V2000
   -3.1735    1.0865   -0.6370 O   0  5  0  0  0  0  0  0  0  0  0  0
    0.3406    1.0849   -0.1224 O   0  5  0  0  0  0  0  0  0  0  0  0
    1.8280   -2.8527    0.0562 O   0  0  0  0  0  0  0  0  0  0  0  0
   -1.3814   -0.7042   -0.0126 N   0  0  0  0  0  2  0  0  0  0  0  0
   -0.1020   -1.1587   -0.0316 N   0  0  0  0  0  0  0  0  0  0  0  0
   -1.9695   -3.0597    0.0234 C   0  0  0  0  0  0  0  0  0  0  0  0
   -1.2836   -3.2730   -0.8213 H   0  0  0  0  0  0  0  0  0  0  0  0
   -2.8363   -3.7349   -0.0497 H   0  0  0  0  0  0  0  0  0  0  0  0
   -1.3997   -3.2931    0.9465 H   0  0  0  0  0  0  0  0  0  0  0  0
   -2.3531   -1.6059    0.0004 C   0  0  2  0  0  3  0  0  0  0  0  0
   -3.7471   -1.1795   -0.0321 C   0  0  0  0  0  0  0  0  0  0  0  0
   -4.8085   -2.0900    0.2223 C   0  0  0  0  0  0  0  0  0  0  0  0
   -4.5722   -3.1202    0.5210 H   0  0  0  0  0  0  0  0  0  0  0  0
   -6.1458   -1.7078    0.1304 C   0  0  0  0  0  0  0  0  0  0  0  0
   -6.9400   -2.4361    0.3486 H   0  0  0  0  0  0  0  0  0  0  0  0
   -6.4714   -0.3884   -0.2422 C   0  0  0  0  0  0  0  0  0  0  0  0
   -7.5248   -0.0809   -0.3263 H   0  0  0  0  0  0  0  0  0  0  0  0
   -5.4596    0.5374   -0.4977 C   0  0  0  0  0  0  0  0  0  0  0  0
   -5.6814    1.5750   -0.7845 H   0  0  0  0  0  0  0  0  0  0  0  0
   -4.1004    0.1670   -0.3811 C   0  0  0  0  0  0  0  0  0  0  0  0
    0.7659   -0.1478   -0.0633 C   0  0  0  0  0  0  0  0  0  0  0  0
    2.1992   -0.4435   -0.0503 C   0  0  0  0  0  0  0  0  0  0  0  0
    3.1183    0.6091   -0.0955 C   0  0  0  0  0  0  0  0  0  0  0  0
    2.7286    1.6368   -0.1420 H   0  0  0  0  0  0  0  0  0  0  0  0
    4.5140    0.3815   -0.0819 C   0  0  0  0  0  0  0  0  0  0  0  0
    5.4611    1.4494   -0.1277 C   0  0  0  0  0  0  0  0  0  0  0  0
    5.0855    2.4836   -0.1750 H   0  0  0  0  0  0  0  0  0  0  0  0
    6.8218    1.1925   -0.1128 C   0  0  0  0  0  0  0  0  0  0  0  0
    7.5440    2.0217   -0.1483 H   0  0  0  0  0  0  0  0  0  0  0  0
    7.2900   -0.1514   -0.0513 C   0  0  0  0  0  0  0  0  0  0  0  0
    8.3733   -0.3472   -0.0397 H   0  0  0  0  0  0  0  0  0  0  0  0
    6.3987   -1.2117   -0.0060 C   0  0  0  0  0  0  0  0  0  0  0  0
    6.7666   -2.2483    0.0414 H   0  0  0  0  0  0  0  0  0  0  0  0
    4.9880   -0.9855   -0.0196 C   0  0  0  0  0  0  0  0  0  0  0  0
    4.0500   -2.0471    0.0254 C   0  0  0  0  0  0  0  0  0  0  0  0
    4.3964   -3.0898    0.0730 H   0  0  0  0  0  0  0  0  0  0  0  0
    2.6729   -1.8142    0.0117 C   0  0  0  0  0  0  0  0  0  0  0  0
    0.8917   -2.4604    0.0347 H   0  0  0  0  0  0  0  0  0  0  0  0
  1 20  1  0  0  0  0
  2 21  1  0  0  0  0
  5  4  1  0  0  0  0
  6  9  1  0  0  0  0
  7  6  1  0  0  0  0
  8  6  1  0  0  0  0
 10  4  1  6  0  0  0
 10  6  1  0  0  0  0
 11 10  1  0  0  0  0
 11 12  1  0  0  0  0
 12 13  1  0  0  0  0
 14 12  2  0  0  0  0
 14 15  1  0  0  0  0
 16 14  1  0  0  0  0
 17 16  1  0  0  0  0
 18 20  1  0  0  0  0
 18 16  2  0  0  0  0
 19 18  1  0  0  0  0
 20 11  2  0  0  0  0
 21 22  1  0  0  0  0
 21  5  2  0  0  0  0
 22 37  1  0  0  0  0
 23 25  1  0  0  0  0
 23 22  2  0  0  0  0
 24 23  1  0  0  0  0
 25 34  1  0  0  0  0
 26 28  1  0  0  0  0
 26 25  2  0  0  0  0
 27 26  1  0  0  0  0
 28 30  2  0  0  0  0
 29 28  1  0  0  0  0
 30 31  1  0  0  0  0
 30 32  1  0  0  0  0
 32 33  1  0  0  0  0
 34 32  2  0  0  0  0
 34 35  1  0  0  0  0
 35 36  1  0  0  0  0
 37 35  2  0  0  0  0
 37  3  1  0  0  0  0
 38  3  1  0  0  0  0
M  CHG  2   1  -1   2  -1
M  END
