1,21,22
q = -2.0, confidence = 0.834

 28 29  0  0  1  0  0  0  0  0999 V2000
    1.3441    1.4007   -0.1353 N   0  0  0  0  0  2  0  0  0  0  0  0
   -3.5283    1.7318    0.2364 O   0  0  0  0  0  0  0  0  0  0  0  0
   -1.0947    1.4138   -0.0134 C   0  0  0  0  0  0  0  0  0  0  0  0
   -3.7503    0.4086    0.0517 C   0  0  0  0  0  0  0  0  0  0  0  0
   -2.6831   -0.5038   -0.0776 C   0  0  0  0  0  0  0  0  0  0  0  0
    0.2053    2.0669   -0.1791 C   0  0  2  0  0  3  0  0  0  0  0  0
   -5.0875   -0.0293    0.0181 C   0  0  0  0  0  0  0  0  0  0  0  0
   -1.3023   -0.0015   -0.0651 C   0  0  0  0  0  0  0  0  0  0  0  0
    0.2827    3.5507   -0.4587 C   0  0  0  0  0  0  0  0  0  0  0  0
    0.4153    4.1216    0.4833 H   0  0  0  0  0  0  0  0  0  0  0  0
   -0.6449    3.9296   -0.9139 H   0  0  0  0  0  0  0  0  0  0  0  0
    1.1414    3.7715   -1.1192 H   0  0  0  0  0  0  0  0  0  0  0  0
    3.8345    1.0864    0.0010 C   0  0  0  0  0  0  0  0  0  0  0  0
   -2.2402    2.2893    0.2917 C   0  0  0  0  0  0  0  0  0  0  0  0
    2.6513    2.0496   -0.2499 C   0  0  0  0  0  0  0  0  0  0  0  0
   -4.3035   -2.3200   -0.2682 C   0  0  0  0  0  0  0  0  0  0  0  0
   -5.3576   -1.3904   -0.1435 C   0  0  0  0  0  0  0  0  0  0  0  0
   -6.4022   -1.7356   -0.1707 H   0  0  0  0  0  0  0  0  0  0  0  0
   -2.9807   -1.8775   -0.2326 C   0  0  0  0  0  0  0  0  0  0  0  0
   -2.2026    3.4651    0.6009 O   0  0  0  0  0  0  0  0  0  0  0  0
    3.5119   -0.1907    0.1419 O   0  5  0  0  0  0  0  0  0  0  0  0
   -0.3963   -0.9180   -0.1288 O   0  5  0  0  0  0  0  0  0  0  0  0
    4.9773    1.5086    0.0402 O   0  0  0  0  0  0  0  0  0  0  0  0
   -4.5246   -3.3900   -0.3939 H   0  0  0  0  0  0  0  0  0  0  0  0
   -5.8871    0.7170    0.1254 H   0  0  0  0  0  0  0  0  0  0  0  0
   -2.1407   -2.5789   -0.3306 H   0  0  0  0  0  0  0  0  0  0  0  0
    2.7999    2.4759   -1.2671 H   0  0  0  0  0  0  0  0  0  0  0  0
    2.7461    2.8953    0.4629 H   0  0  0  0  0  0  0  0  0  0  0  0
  2 14  1  0  0  0  0
  3 14  1  0  0  0  0
  4  2  1  0  0  0  0
  5  8  1  0  0  0  0
  5  4  2  0  0  0  0
  6  1  1  6  0  0  0
  6  3  1  0  0  0  0
  7  4  1  0  0  0  0
  7 25  1  0  0  0  0
  8  3  2  0  0  0  0
  9  6  1  0  0  0  0
  9 10  1  0  0  0  0
 11  9  1  0  0  0  0
 12  9  1  0  0  0  0
 13 23  2  0  0  0  0
 13 21  1  0  0  0  0
 14 20  2  0  0  0  0
 15  1  1  0  0  0  0
 15 13  1  0  0  0  0
 15 28  1  0  0  0  0
 16 19  2  0  0  0  0
 16 17  1  0  0  0  0
 17  7  2  0  0  0  0
 18 17  1  0  0  0  0
 19  5  1  0  0  0  0
 22  8  1  0  0  0  0
 24 16  1  0  0  0  0
 26 19  1  0  0  0  0
 27 15  1  0  0  0  0
M  CHG  2  21  -1  22  -1
M  END
