1,3,4
q = -2.0, confidence = 0.934

 36 37  0  0  0  0  0  0  0  0999 V2000
   -1.0507    0.9620   -0.1598 N   0  0  0  0  0  2  0  0  0  0  0  0
    0.2544    1.3325   -0.0946 N   0  0  0  0  0  0  0  0  0  0  0  0
   -3.1439   -0.6889    0.1234 O   0  5  0  0  0  0  0  0  0  0  0  0
    0.5158   -0.9554   -0.1388 O   0  5  0  0  0  0  0  0  0  0  0  0
    5.5608   -1.6748   -0.1294 O   0  0  0  0  0  0  0  0  0  0  0  0
    5.1343    2.9847    0.1740 O   0  0  0  0  0  0  0  0  0  0  0  0
   -3.3752    1.6869   -0.1739 C   0  0  0  0  0  0  0  0  0  0  0  0
   -3.9255    0.3706   -0.0294 C   0  0  0  0  0  0  0  0  0  0  0  0
   -5.3304    0.2082   -0.0072 C   0  0  0  0  0  0  0  0  0  0  0  0
   -5.7287   -0.8100    0.1071 H   0  0  0  0  0  0  0  0  0  0  0  0
   -6.1741    1.3159   -0.1276 C   0  0  0  0  0  0  0  0  0  0  0  0
   -7.2648    1.1675   -0.1119 H   0  0  0  0  0  0  0  0  0  0  0  0
   -5.6435    2.6154   -0.2676 C   0  0  0  0  0  0  0  0  0  0  0  0
   -6.3136    3.4820   -0.3618 H   0  0  0  0  0  0  0  0  0  0  0  0
   -4.2603    2.7905   -0.2839 C   0  0  0  0  0  0  0  0  0  0  0  0
   -3.8290    3.7986   -0.3884 H   0  0  0  0  0  0  0  0  0  0  0  0
   -1.9539    1.9123   -0.1581 C   0  0  0  0  0  3  0  0  0  0  0  0
   -1.5801    2.9535   -0.1398 H   0  0  0  0  0  0  0  0  0  0  0  0
    1.0230    0.2559   -0.1062 C   0  0  0  0  0  0  0  0  0  0  0  0
    2.4930    0.4005   -0.0633 C   0  0  0  0  0  0  0  0  0  0  0  0
    3.2912   -0.7589   -0.1198 C   0  0  0  0  0  0  0  0  0  0  0  0
    2.7914   -1.7309   -0.2020 H   0  0  0  0  0  0  0  0  0  0  0  0
    4.6934   -0.6257   -0.0777 C   0  0  0  0  0  0  0  0  0  0  0  0
    5.2790    0.6488    0.0230 C   0  0  0  0  0  0  0  0  0  0  0  0
    6.3723    0.7473    0.0560 H   0  0  0  0  0  0  0  0  0  0  0  0
    4.4700    1.8000    0.0786 C   0  0  0  0  0  0  0  0  0  0  0  0
    3.0679    1.6839    0.0348 C   0  0  0  0  0  0  0  0  0  0  0  0
    2.3969    2.5497    0.0738 H   0  0  0  0  0  0  0  0  0  0  0  0
    5.0245   -2.9785   -0.2432 C   0  0  0  0  0  0  0  0  0  0  0  0
    4.3827   -3.2426    0.6275 H   0  0  0  0  0  0  0  0  0  0  0  0
    5.8869   -3.6700   -0.2760 H   0  0  0  0  0  0  0  0  0  0  0  0
    4.4253   -3.1026   -1.1732 H   0  0  0  0  0  0  0  0  0  0  0  0
    4.3699    4.1744    0.2276 C   0  0  0  0  0  0  0  0  0  0  0  0
    3.7493    4.3113   -0.6862 H   0  0  0  0  0  0  0  0  0  0  0  0
    5.0934    5.0077    0.3000 H   0  0  0  0  0  0  0  0  0  0  0  0
    3.6995    4.1982    1.1159 H   0  0  0  0  0  0  0  0  0  0  0  0
  1 17  1  0  0  0  0
  1  2  1  0  0  0  0
  4 19  1  0  0  0  0
  5 23  1  0  0  0  0
  6 33  1  0  0  0  0
  7 17  1  0  0  0  0
  7  8  1  0  0  0  0
  8  9  2  0  0  0  0
  8  3  1  0  0  0  0
  9 10  1  0  0  0  0
 11 12  1  0  0  0  0
 11  9  1  0  0  0  0
 13 11  2  0  0  0  0
 14 13  1  0  0  0  0
 15 13  1  0  0  0  0
 15  7  2  0  0  0  0
 16 15  1  0  0  0  0
 17 18  1  0  0  0  0
 19  2  2  0  0  0  0
 19 20  1  0  0  0  0
 20 27  1  0  0  0  0
 21 23  1  0  0  0  0
 21 20  2  0  0  0  0
 22 21  1  0  0  0  0
 23 24  2  0  0  0  0
 24 25  1  0  0  0  0
 24 26  1  0  0  0  0
 26  6  1  0  0  0  0
 27 28  1  0  0  0  0
 27 26  2  0  0  0  0
 29  5  1  0  0  0  0
 29 30  1  0  0  0  0
 31 29  1  0  0  0  0
 32 29  1  0  0  0  0
 33 35  1  0  0  0  0
 33 36  1  0  0  0  0
 34 33  1  0  0  0  0
M  CHG  2   3  -1   4  -1
M  END
