1,3,7
q = -2.0, confidence = 0.948

 32 32  0  0  0  0  0  0  0  0999 V2000
   -2.7605   -0.7981   -0.5956 O   0  5  0  0  0  0  0  0  0  0  0  0
   -4.5949   -0.8676    0.7227 O   0  0  0  0  0  0  0  0  0  0  0  0
   -0.7593    1.1770   -1.3859 O   0  5  0  0  0  0  0  0  0  0  0  0
   -0.6207    3.3856   -0.9050 O   0  0  0  0  0  0  0  0  0  0  0  0
    4.2029    0.2381    0.0954 O   0  0  0  0  0  0  0  0  0  0  0  0
    4.3173   -1.6106    1.3234 O   0  0  0  0  0  0  0  0  0  0  0  0
   -1.3606    0.5699    1.1421 N   0  0  0  0  0  0  0  0  0  0  0  0
    1.3310    0.1012    0.0880 N   0  0  0  0  0  0  0  0  0  0  0  0
   -2.4989   -0.1738    1.6999 C   0  0  0  0  0  0  0  0  0  0  0  0
   -3.3997   -0.6531    0.5329 C   0  0  0  0  0  0  0  0  0  0  0  0
   -1.7557    1.8901    0.6270 C   0  0  0  0  0  0  0  0  0  0  0  0
   -0.9784    2.2256   -0.6658 C   0  0  0  0  0  0  0  0  0  0  0  0
   -0.1738    0.6163    2.0061 C   0  0  0  0  0  0  0  0  0  0  0  0
    1.0659    1.0278    1.2163 C   0  0  0  0  0  0  0  0  0  0  0  0
    2.1284   -1.0705    0.4916 C   0  0  0  0  0  0  0  0  0  0  0  0
    3.6202   -0.8367    0.6995 C   0  0  0  0  0  0  0  0  0  0  0  0
    3.4161    1.2390   -0.5885 C   0  0  0  0  0  0  0  0  0  0  0  0
    2.0459    0.7590   -1.0258 C   0  0  0  0  0  0  0  0  0  0  0  0
   -2.1066   -1.0804    2.2024 H   0  0  0  0  0  0  0  0  0  0  0  0
   -3.0898    0.4249    2.4285 H   0  0  0  0  0  0  0  0  0  0  0  0
   -2.8306    1.8518    0.3597 H   0  0  0  0  0  0  0  0  0  0  0  0
   -1.6207    2.6919    1.3872 H   0  0  0  0  0  0  0  0  0  0  0  0
   -0.0363   -0.4004    2.4224 H   0  0  0  0  0  0  0  0  0  0  0  0
   -0.3168    1.3270    2.8568 H   0  0  0  0  0  0  0  0  0  0  0  0
    0.9252    2.0442    0.7966 H   0  0  0  0  0  0  0  0  0  0  0  0
    1.9372    1.0837    1.9107 H   0  0  0  0  0  0  0  0  0  0  0  0
    2.0102   -1.8338   -0.3087 H   0  0  0  0  0  0  0  0  0  0  0  0
    1.7058   -1.5342    1.3999 H   0  0  0  0  0  0  0  0  0  0  0  0
    3.3376    2.1164    0.0911 H   0  0  0  0  0  0  0  0  0  0  0  0
    4.0138    1.5577   -1.4669 H   0  0  0  0  0  0  0  0  0  0  0  0
    1.4327    1.6001   -1.4050 H   0  0  0  0  0  0  0  0  0  0  0  0
    2.1048    0.0207   -1.8494 H   0  0  0  0  0  0  0  0  0  0  0  0
  1 10  1  0  0  0  0
  3 12  1  0  0  0  0
  4 12  2  0  0  0  0
  5 16  1  0  0  0  0
  7  9  1  0  0  0  0
  7 13  1  0  0  0  0
  8 15  1  0  0  0  0
  8 14  1  0  0  0  0
  9 19  1  0  0  0  0
  9 20  1  0  0  0  0
 10  2  2  0  0  0  0
 10  9  1  0  0  0  0
 11  7  1  0  0  0  0
 11 22  1  0  0  0  0
 12 11  1  0  0  0  0
 13 23  1  0  0  0  0
 13 24  1  0  0  0  0
 14 26  1  0  0  0  0
 14 13  1  0  0  0  0
 15 16  1  0  0  0  0
 15 28  1  0  0  0  0
 16  6  2  0  0  0  0
 17 29  1  0  0  0  0
 17  5  1  0  0  0  0
 18 17  1  0  0  0  0
 18  8  1  0  0  0  0
 21 11  1  0  0  0  0
 25 14  1  0  0  0  0
 27 15  1  0  0  0  0
 30 17  1  0  0  0  0
 31 18  1  0  0  0  0
 32 18  1  0  0  0  0
M  CHG  2   1  -1   3  -1
M  END
