2,4,5
q = -2.0, confidence = 0.916

 31 32  0  0  0  0  0  0  0  0999 V2000
    4.7882    1.0869   -0.6773 Br  0  0  0  0  0  0  0  0  0  0  0  0
    0.2005   -1.8967    0.5043 N   0  0  0  0  0  2  0  0  0  0  0  0
   -1.0497   -2.3523    0.7753 N   0  0  0  0  0  0  0  0  0  0  0  0
    2.0326   -0.1407   -0.3137 O   0  5  0  0  0  0  0  0  0  0  0  0
   -1.5163   -0.9049   -0.9308 O   0  5  0  0  0  0  0  0  0  0  0  0
    2.5673   -1.9855    1.1169 C   0  0  0  0  0  0  0  0  0  0  0  0
    2.9334   -0.8359    0.3397 C   0  0  0  0  0  0  0  0  0  0  0  0
    4.3001   -0.4413    0.3351 C   0  0  0  0  0  0  0  0  0  0  0  0
    5.2638   -1.1540    1.0544 C   0  0  0  0  0  0  0  0  0  0  0  0
    6.3109   -0.8208    1.0190 H   0  0  0  0  0  0  0  0  0  0  0  0
    4.8935   -2.2823    1.8142 C   0  0  0  0  0  0  0  0  0  0  0  0
    5.6594   -2.8352    2.3765 H   0  0  0  0  0  0  0  0  0  0  0  0
    3.5602   -2.6857    1.8493 C   0  0  0  0  0  0  0  0  0  0  0  0
    3.2572   -3.5608    2.4444 H   0  0  0  0  0  0  0  0  0  0  0  0
    1.1924   -2.3927    1.2109 C   0  0  0  0  0  3  0  0  0  0  0  0
    0.9221   -3.1784    1.9398 H   0  0  0  0  0  0  0  0  0  0  0  0
   -1.9200   -1.7774   -0.0419 C   0  0  0  0  0  0  0  0  0  0  0  0
   -3.3553   -2.1238    0.0540 C   0  0  0  0  0  0  0  0  0  0  0  0
   -4.3644   -1.4576   -0.7034 C   0  0  0  0  0  0  0  0  0  0  0  0
   -5.6985   -1.8783   -0.5224 C   0  0  0  0  0  0  0  0  0  0  0  0
   -6.4877   -1.3727   -1.1007 H   0  0  0  0  0  0  0  0  0  0  0  0
   -6.0458   -2.9081    0.3612 C   0  0  0  0  0  0  0  0  0  0  0  0
   -7.1003   -3.2050    0.4690 H   0  0  0  0  0  0  0  0  0  0  0  0
   -5.0456   -3.5546    1.1046 C   0  0  0  0  0  0  0  0  0  0  0  0
   -5.3026   -4.3648    1.8032 H   0  0  0  0  0  0  0  0  0  0  0  0
   -3.7157   -3.1604    0.9482 C   0  0  0  0  0  0  0  0  0  0  0  0
   -2.9096   -3.6454    1.5160 H   0  0  0  0  0  0  0  0  0  0  0  0
   -4.0897   -0.3326   -1.6702 C   0  0  0  0  0  0  0  0  0  0  0  0
   -3.6000    0.5253   -1.1673 H   0  0  0  0  0  0  0  0  0  0  0  0
   -5.0355    0.0181   -2.1273 H   0  0  0  0  0  0  0  0  0  0  0  0
   -3.3935   -0.6423   -2.4733 H   0  0  0  0  0  0  0  0  0  0  0  0
  1  8  1  0  0  0  0
  2  3  1  0  0  0  0
  2 15  1  0  0  0  0
  4  7  1  0  0  0  0
  5 17  1  0  0  0  0
  6 15  1  0  0  0  0
  6 13  1  0  0  0  0
  7  6  2  0  0  0  0
  8  7  1  0  0  0  0
  8  9  2  0  0  0  0
  9 11  1  0  0  0  0
 10  9  1  0  0  0  0
 11 13  2  0  0  0  0
 11 12  1  0  0  0  0
 13 14  1  0  0  0  0
 15 16  1  0  0  0  0
 17 18  1  0  0  0  0
 17  3  2  0  0  0  0
 18 26  1  0  0  0  0
 19 20  1  0  0  0  0
 19 18  2  0  0  0  0
 20 22  2  0  0  0  0
 21 20  1  0  0  0  0
 22 23  1  0  0  0  0
 22 24  1  0  0  0  0
 24 25  1  0  0  0  0
 26 24  2  0  0  0  0
 26 27  1  0  0  0  0
 28 29  1  0  0  0  0
 28 19  1  0  0  0  0
 30 28  1  0  0  0  0
 31 28  1  0  0  0  0
M  CHG  2   4  -1   5  -1
M  END
