2,3,7
q = -2.0, confidence = 0.73

 30 31  0  0  0  0  0  0  0  0999 V2000
    6.7993   -3.2098   -0.0004 Cl  0  0  0  0  0  0  0  0  0  0  0  0
   -1.0353    0.6371   -0.0001 O   0  5  0  0  0  0  0  0  0  0  0  0
    2.6205    0.9639    0.0006 O   0  5  0  0  0  0  0  0  0  0  0  0
   -7.3173   -3.0696   -0.0009 O   0  0  0  0  0  0  0  0  0  0  0  0
   -7.7891   -0.9343    0.0006 O   0  0  0  0  0  0  0  0  0  0  0  0
   -0.4973   -1.6067    0.0003 N   0  0  0  0  0  0  0  0  0  0  0  0
    0.7553   -1.0597    0.0003 N   0  0  0  0  0  2  0  0  0  0  0  0
   -6.9989   -1.8797   -0.0001 N   0  0  0  0  0  0  0  0  0  0  0  0
   -2.8298   -0.9588    0.0001 C   0  0  0  0  0  0  0  0  0  0  0  0
   -3.7884    0.0798   -0.0003 C   0  0  0  0  0  0  0  0  0  0  0  0
   -3.4397    1.1216   -0.0005 H   0  0  0  0  0  0  0  0  0  0  0  0
   -5.1538   -0.2165   -0.0003 C   0  0  0  0  0  0  0  0  0  0  0  0
   -5.9246    0.5654   -0.0004 H   0  0  0  0  0  0  0  0  0  0  0  0
   -5.5525   -1.5604   -0.0001 C   0  0  0  0  0  0  0  0  0  0  0  0
   -4.6227   -2.6117    0.0002 C   0  0  0  0  0  0  0  0  0  0  0  0
   -4.9913   -3.6460    0.0003 H   0  0  0  0  0  0  0  0  0  0  0  0
   -3.2609   -2.3067    0.0003 C   0  0  0  0  0  0  0  0  0  0  0  0
   -2.5015   -3.1007    0.0006 H   0  0  0  0  0  0  0  0  0  0  0  0
   -1.3913   -0.6306    0.0001 C   0  0  0  0  0  0  0  0  0  0  0  0
    1.8037   -1.8626    0.0002 C   0  0  0  0  0  0  0  0  0  0  0  0
    1.5862   -2.9452    0.0002 H   0  0  0  0  0  0  0  0  0  0  0  0
    3.1607   -1.4121    0.0002 C   0  0  0  0  0  0  0  0  0  0  0  0
    3.5047   -0.0096    0.0003 C   0  0  0  0  0  0  0  0  0  0  0  0
    4.8866    0.3370    0.0002 C   0  0  0  0  0  0  0  0  0  0  0  0
    5.1400    1.4071    0.0003 H   0  0  0  0  0  0  0  0  0  0  0  0
    5.8844   -0.6304   -0.0000 C   0  0  0  0  0  0  0  0  0  0  0  0
    6.9453   -0.3425   -0.0001 H   0  0  0  0  0  0  0  0  0  0  0  0
    5.5354   -2.0027   -0.0001 C   0  0  0  0  0  0  0  0  0  0  0  0
    4.2008   -2.3859   -0.0000 C   0  0  0  0  0  3  0  0  0  0  0  0
    3.9382   -3.4537   -0.0001 H   0  0  0  0  0  0  0  0  0  0  0  0
  1 28  1  0  0  0  0
  2 19  1  0  0  0  0
  4  8  2  0  0  0  0
  7  6  1  0  0  0  0
  8 14  1  0  0  0  0
  8  5  2  0  0  0  0
  9 19  1  0  0  0  0
  9 17  1  0  0  0  0
 10  9  2  0  0  0  0
 11 10  1  0  0  0  0
 12 10  1  0  0  0  0
 12 14  2  0  0  0  0
 13 12  1  0  0  0  0
 14 15  1  0  0  0  0
 15 17  2  0  0  0  0
 15 16  1  0  0  0  0
 17 18  1  0  0  0  0
 19  6  2  0  0  0  0
 20 21  1  0  0  0  0
 20  7  1  0  0  0  0
 22 20  2  0  0  0  0
 22 23  1  0  0  0  0
 23  3  1  0  0  0  0
 24 23  2  0  0  0  0
 24 25  1  0  0  0  0
 26 24  1  0  0  0  0
 27 26  1  0  0  0  0
 28 29  1  0  0  0  0
 28 26  2  0  0  0  0
 29 22  1  0  0  0  0
 30 29  1  0  0  0  0
M  CHG  2   2  -1   3  -1
M  END
