1,4,5
q = -1.0, confidence = 0.064

 47 48  0  0  1  0  0  0  0  0999 V2000
   -0.7750    0.2446   -0.0053 N   0  0  0  0  0  2  0  0  0  0  0  0
   -2.0837    0.6284   -0.0286 N   0  0  0  0  0  0  0  0  0  0  0  0
    5.7475    0.4201   -0.0305 N   0  0  0  0  0  0  0  0  0  0  0  0
    1.3395   -1.4170    0.1311 O   0  5  0  0  0  0  0  0  0  0  0  0
   -2.5773   -1.5562    0.1095 O   0  0  0  0  0  1  0  0  0  0  0  0
   -4.1461    2.3015   -0.1369 O   0  0  0  0  0  0  0  0  0  0  0  0
    1.5364    0.9739   -0.0652 C   0  0  0  0  0  0  0  0  0  0  0  0
    2.0908   -0.3640    0.0435 C   0  0  0  0  0  0  0  0  0  0  0  0
    3.4992   -0.5107    0.0484 C   0  0  0  0  0  0  0  0  0  0  0  0
    3.8621   -1.5431    0.1098 H   0  0  0  0  0  0  0  0  0  0  0  0
    4.3794    0.5904   -0.0444 C   0  0  0  0  0  0  0  0  0  0  0  0
    3.8076    1.9102   -0.1487 C   0  0  0  0  0  0  0  0  0  0  0  0
    4.4506    2.7964   -0.2033 H   0  0  0  0  0  0  0  0  0  0  0  0
    2.4369    2.0738   -0.1576 C   0  0  0  0  0  0  0  0  0  0  0  0
    2.0178    3.0908   -0.2314 H   0  0  0  0  0  0  0  0  0  0  0  0
    0.1398    1.1964   -0.0778 C   0  0  0  0  0  3  0  0  0  0  0  0
   -0.2058    2.2494   -0.1553 H   0  0  0  0  0  0  0  0  0  0  0  0
   -2.9968   -0.3702    0.0336 C   0  0  1  0  0  3  0  0  0  0  0  0
   -4.4451   -0.0661    0.0131 C   0  0  0  0  0  0  0  0  0  0  0  0
   -5.0105    1.2398   -0.0704 C   0  0  0  0  0  0  0  0  0  0  0  0
   -6.4081    1.3984   -0.0822 C   0  0  0  0  0  0  0  0  0  0  0  0
   -6.8534    2.3992   -0.1463 H   0  0  0  0  0  0  0  0  0  0  0  0
   -7.2457    0.2749   -0.0118 C   0  0  0  0  0  0  0  0  0  0  0  0
   -8.3365    0.4200   -0.0223 H   0  0  0  0  0  0  0  0  0  0  0  0
   -6.7035   -1.0158    0.0708 C   0  0  0  0  0  0  0  0  0  0  0  0
   -7.3607   -1.8953    0.1259 H   0  0  0  0  0  0  0  0  0  0  0  0
   -5.3151   -1.1754    0.0826 C   0  0  0  0  0  0  0  0  0  0  0  0
   -4.8489   -2.1691    0.1461 H   0  0  0  0  0  0  0  0  0  0  0  0
   -4.6679    3.6213   -0.2224 C   0  0  0  0  0  0  0  0  0  0  0  0
   -5.2793    3.7576   -1.1401 H   0  0  0  0  0  0  0  0  0  0  0  0
   -3.7943    4.2971   -0.2647 H   0  0  0  0  0  0  0  0  0  0  0  0
   -5.2816    3.8739    0.6687 H   0  0  0  0  0  0  0  0  0  0  0  0
    6.6725    1.5304   -0.2293 C   0  0  0  0  0  0  0  0  0  0  0  0
    6.2423    2.2415   -0.9634 H   0  0  0  0  0  0  0  0  0  0  0  0
    7.5834    1.1222   -0.7158 H   0  0  0  0  0  0  0  0  0  0  0  0
    7.0523    2.2554    1.0651 C   0  0  0  0  0  0  0  0  0  0  0  0
    6.1594    2.6966    1.5509 H   0  0  0  0  0  0  0  0  0  0  0  0
    7.7766    3.0703    0.8625 H   0  0  0  0  0  0  0  0  0  0  0  0
    7.5183    1.5575    1.7900 H   0  0  0  0  0  0  0  0  0  0  0  0
    6.3475   -0.8955    0.1713 C   0  0  0  0  0  0  0  0  0  0  0  0
    7.3325   -0.7416    0.6602 H   0  0  0  0  0  0  0  0  0  0  0  0
    5.7358   -1.4630    0.9018 H   0  0  0  0  0  0  0  0  0  0  0  0
    6.5216   -1.6966   -1.1218 C   0  0  0  0  0  0  0  0  0  0  0  0
    5.5448   -1.8806   -1.6108 H   0  0  0  0  0  0  0  0  0  0  0  0
    6.9933   -2.6780   -0.9133 H   0  0  0  0  0  0  0  0  0  0  0  0
    7.1664   -1.1546   -1.8435 H   0  0  0  0  0  0  0  0  0  0  0  0
   -2.3840    1.6120   -0.0915 H   0  0  0  0  0  0  0  0  0  0  0  0
  2  1  1  0  0  0  0
  2 18  1  0  0  0  0
  3 40  1  0  0  0  0
  6 20  1  0  0  0  0
  7  8  1  0  0  0  0
  8  9  2  0  0  0  0
  8  4  1  0  0  0  0
  9 10  1  0  0  0  0
 11  3  1  0  0  0  0
 11  9  1  0  0  0  0
 12 11  2  0  0  0  0
 13 12  1  0  0  0  0
 14 12  1  0  0  0  0
 14  7  2  0  0  0  0
 15 14  1  0  0  0  0
 16  7  1  0  0  0  0
 16  1  1  0  0  0  0
 17 16  1  0  0  0  0
 18  5  1  1  0  0  0
 19 18  1  0  0  0  0
 19 27  1  0  0  0  0
 20 19  2  0  0  0  0
 21 20  1  0  0  0  0
 21 23  2  0  0  0  0
 22 21  1  0  0  0  0
 23 25  1  0  0  0  0
 24 23  1  0  0  0  0
 25 27  2  0  0  0  0
 25 26  1  0  0  0  0
 27 28  1  0  0  0  0
 29  6  1  0  0  0  0
 29 32  1  0  0  0  0
 30 29  1  0  0  0  0
 31 29  1  0  0  0  0
 33  3  1  0  0  0  0
 33 36  1  0  0  0  0
 34 33  1  0  0  0  0
 35 33  1  0  0  0  0
 36 37  1  0  0  0  0
 36 39  1  0  0  0  0
 38 36  1  0  0  0  0
 40 41  1  0  0  0  0
 40 42  1  0  0  0  0
 43 45  1  0  0  0  0
 43 40  1  0  0  0  0
 44 43  1  0  0  0  0
 46 43  1  0  0  0  0
 47  2  1  0  0  0  0
M  CHG  1   4  -1
M  END
