1,2,4
q = -2.0, confidence = 0.88

 32 33  0  0  0  0  0  0  0  0999 V2000
   -2.9268    0.1868    0.0169 O   0  5  0  0  0  0  0  0  0  0  0  0
    0.7429    0.5138   -0.0094 O   0  5  0  0  0  0  0  0  0  0  0  0
    6.9586   -1.0406   -0.0267 O   0  0  0  0  0  0  0  0  0  0  0  0
   -0.7365   -1.4509    0.0119 N   0  0  0  0  0  2  0  0  0  0  0  0
    0.5917   -1.7825    0.0120 N   0  0  0  0  0  0  0  0  0  0  0  0
   -3.6265   -0.9255    0.0173 C   0  0  0  0  0  0  0  0  0  0  0  0
   -3.0398   -2.2426    0.0138 C   0  0  0  0  0  0  0  0  0  0  0  0
   -3.8926   -3.3834    0.0130 C   0  0  0  0  0  3  0  0  0  0  0  0
   -3.4252   -4.3809    0.0096 H   0  0  0  0  0  0  0  0  0  0  0  0
   -5.2767   -3.2583    0.0158 C   0  0  0  0  0  0  0  0  0  0  0  0
   -5.9171   -4.1521    0.0151 H   0  0  0  0  0  0  0  0  0  0  0  0
   -5.8514   -1.9648    0.0204 C   0  0  0  0  0  0  0  0  0  0  0  0
   -6.9468   -1.8520    0.0242 H   0  0  0  0  0  0  0  0  0  0  0  0
   -5.0483   -0.8279    0.0217 C   0  0  0  0  0  0  0  0  0  0  0  0
   -5.4856    0.1814    0.0307 H   0  0  0  0  0  0  0  0  0  0  0  0
   -1.6234   -2.4282    0.0098 C   0  0  0  0  0  0  0  0  0  0  0  0
   -1.2071   -3.4510    0.0075 H   0  0  0  0  0  0  0  0  0  0  0  0
    1.3114   -0.6739   -0.0008 C   0  0  0  0  0  0  0  0  0  0  0  0
    2.7827   -0.7484   -0.0095 C   0  0  0  0  0  0  0  0  0  0  0  0
    3.5554    0.4242   -0.1120 C   0  0  0  0  0  0  0  0  0  0  0  0
    3.0376    1.3905   -0.1938 H   0  0  0  0  0  0  0  0  0  0  0  0
    4.9559    0.3726   -0.1216 C   0  0  0  0  0  0  0  0  0  0  0  0
    5.5290    1.3056   -0.2056 H   0  0  0  0  0  0  0  0  0  0  0  0
    5.6086   -0.8748   -0.0278 C   0  0  0  0  0  0  0  0  0  0  0  0
    4.8398   -2.0581    0.0721 C   0  0  0  0  0  0  0  0  0  0  0  0
    5.3713   -3.0182    0.1425 H   0  0  0  0  0  0  0  0  0  0  0  0
    3.4495   -1.9947    0.0795 C   0  0  0  0  0  0  0  0  0  0  0  0
    2.8437   -2.9087    0.1556 H   0  0  0  0  0  0  0  0  0  0  0  0
    7.7790    0.1074   -0.1252 C   0  0  0  0  0  0  0  0  0  0  0  0
    8.8247   -0.2515   -0.1051 H   0  0  0  0  0  0  0  0  0  0  0  0
    7.6203    0.8059    0.7272 H   0  0  0  0  0  0  0  0  0  0  0  0
    7.6057    0.6618   -1.0751 H   0  0  0  0  0  0  0  0  0  0  0  0
  1  6  1  0  0  0  0
  2 18  1  0  0  0  0
  4  5  1  0  0  0  0
  6 14  2  0  0  0  0
  7  6  1  0  0  0  0
  8  7  1  0  0  0  0
  8 10  1  0  0  0  0
  9  8  1  0  0  0  0
 10 12  2  0  0  0  0
 11 10  1  0  0  0  0
 12 14  1  0  0  0  0
 12 13  1  0  0  0  0
 14 15  1  0  0  0  0
 16  4  1  0  0  0  0
 16  7  2  0  0  0  0
 17 16  1  0  0  0  0
 18  5  2  0  0  0  0
 19 18  1  0  0  0  0
 19 27  1  0  0  0  0
 20 19  2  0  0  0  0
 21 20  1  0  0  0  0
 22 20  1  0  0  0  0
 22 24  2  0  0  0  0
 23 22  1  0  0  0  0
 24  3  1  0  0  0  0
 24 25  1  0  0  0  0
 25 27  2  0  0  0  0
 25 26  1  0  0  0  0
 27 28  1  0  0  0  0
 29 30  1  0  0  0  0
 29  3  1  0  0  0  0
 29 31  1  0  0  0  0
 32 29  1  0  0  0  0
M  CHG  2   1  -1   2  -1
M  END
