22,23,24
q = -2.0, confidence = 0.942

 26 27  0  0  0  0  0  0  0  0999 V2000
    1.6163   -2.9903    0.0091 C   0  0  0  0  0  0  0  0  0  0  0  0
    1.6447   -4.4078    0.0059 C   0  0  0  0  0  0  0  0  0  0  0  0
    0.6852   -4.9450    0.0211 H   0  0  0  0  0  0  0  0  0  0  0  0
    2.8650   -5.0866   -0.0090 C   0  0  0  0  0  0  0  0  0  0  0  0
    2.8721   -6.1875   -0.0090 H   0  0  0  0  0  0  0  0  0  0  0  0
    4.0859   -4.3781   -0.0206 C   0  0  0  0  0  0  0  0  0  0  0  0
    5.0422   -4.9211   -0.0290 H   0  0  0  0  0  0  0  0  0  0  0  0
    4.0801   -2.9802   -0.0195 C   0  0  0  0  0  0  0  0  0  0  0  0
    5.0347   -2.4342   -0.0252 H   0  0  0  0  0  0  0  0  0  0  0  0
    2.8560   -2.2776   -0.0090 C   0  0  0  0  0  0  0  0  0  0  0  0
    3.6988   -0.0055   -0.0650 C   0  0  0  0  0  0  0  0  0  0  0  0
    4.7305   -0.4010   -0.1222 H   0  0  0  0  0  0  0  0  0  0  0  0
    3.5903    1.4244   -0.0506 C   0  0  0  0  0  0  0  0  0  0  0  0
    2.3444    2.1306    0.0196 C   0  0  0  0  0  0  0  0  0  0  0  0
    2.3689    3.5706    0.0647 C   0  0  0  0  0  0  0  0  0  0  0  0
    3.5728    4.2683    0.0164 C   0  0  0  0  0  0  0  0  0  0  0  0
    3.5433    5.3673    0.0505 H   0  0  0  0  0  0  0  0  0  0  0  0
    4.7993    3.5650   -0.0713 C   0  0  0  0  0  0  0  0  0  0  0  0
    5.7446    4.1257   -0.1104 H   0  0  0  0  0  0  0  0  0  0  0  0
    4.8081    2.1793   -0.1009 C   0  0  0  0  0  3  0  0  0  0  0  0
    5.7595    1.6288   -0.1603 H   0  0  0  0  0  0  0  0  0  0  0  0
    2.7124   -0.8726   -0.0123 N   0  0  0  0  0  2  0  0  0  0  0  0
    0.4591   -2.3336    0.0336 O   0  5  0  0  0  0  0  0  0  0  0  0
    1.1279    1.6212    0.0529 O   0  5  0  0  0  0  0  0  0  0  0  0
    1.1786    4.2080    0.1568 O   0  0  0  0  0  0  0  0  0  0  0  0
    0.5067    3.4850    0.1960 H   0  0  0  0  0  0  0  0  0  0  0  0
  1 23  1  0  0  0  0
  2  1  1  0  0  0  0
  2  3  1  0  0  0  0
  4  2  2  0  0  0  0
  5  4  1  0  0  0  0
  6  8  2  0  0  0  0
  6  4  1  0  0  0  0
  7  6  1  0  0  0  0
  8 10  1  0  0  0  0
  9  8  1  0  0  0  0
 10  1  2  0  0  0  0
 11 13  2  0  0  0  0
 11 22  1  0  0  0  0
 12 11  1  0  0  0  0
 13 14  1  0  0  0  0
 14 24  1  0  0  0  0
 14 15  2  0  0  0  0
 15 25  1  0  0  0  0
 16 17  1  0  0  0  0
 16 15  1  0  0  0  0
 18 16  2  0  0  0  0
 19 18  1  0  0  0  0
 20 18  1  0  0  0  0
 20 13  1  0  0  0  0
 21 20  1  0  0  0  0
 22 10  1  0  0  0  0
 25 26  1  0  0  0  0
M  CHG  2  23  -1  24  -1
M  END
