1,3,4
q = -2.0, confidence = 0.848

 32 33  0  0  0  0  0  0  0  0999 V2000
    0.5210    0.7415   -0.1348 N   0  0  0  0  0  2  0  0  0  0  0  0
   -0.8185    0.9895   -0.1133 N   0  0  0  0  0  0  0  0  0  0  0  0
    2.8226   -0.7373    0.0220 O   0  5  0  0  0  0  0  0  0  0  0  0
   -0.9318   -1.3092   -0.2120 O   0  5  0  0  0  0  0  0  0  0  0  0
   -2.9966    2.3557   -0.0326 O   0  0  0  0  0  0  0  0  0  0  0  0
   -2.0052    2.1322   -0.0540 H   0  0  0  0  0  0  0  0  0  0  0  0
    2.7717    1.6796   -0.0601 C   0  0  0  0  0  0  0  0  0  0  0  0
    3.4660    0.4278   -0.0180 C   0  0  0  0  0  0  0  0  0  0  0  0
    4.8774    0.4182    0.0099 C   0  0  0  0  0  0  0  0  0  0  0  0
    5.3834   -0.5568    0.0441 H   0  0  0  0  0  0  0  0  0  0  0  0
    5.5940    1.6182   -0.0041 C   0  0  0  0  0  0  0  0  0  0  0  0
    6.6940    1.5893    0.0167 H   0  0  0  0  0  0  0  0  0  0  0  0
    4.9235    2.8582   -0.0414 C   0  0  0  0  0  0  0  0  0  0  0  0
    5.4931    3.7984   -0.0516 H   0  0  0  0  0  0  0  0  0  0  0  0
    3.5303    2.8801   -0.0660 C   0  0  0  0  0  0  0  0  0  0  0  0
    2.9908    3.8398   -0.0953 H   0  0  0  0  0  0  0  0  0  0  0  0
    1.3354    1.7680   -0.0782 C   0  0  0  0  0  3  0  0  0  0  0  0
    0.8768    2.7748   -0.0453 H   0  0  0  0  0  0  0  0  0  0  0  0
   -1.5284   -0.1367   -0.1771 C   0  0  0  0  0  0  0  0  0  0  0  0
   -2.9840   -0.0719   -0.1713 C   0  0  0  0  0  0  0  0  0  0  0  0
   -3.6546    1.1922   -0.0971 C   0  0  0  0  0  0  0  0  0  0  0  0
   -5.0774    1.2368   -0.0873 C   0  0  0  0  0  0  0  0  0  0  0  0
   -5.7839    0.0301   -0.1512 C   0  0  0  0  0  0  0  0  0  0  0  0
   -6.8851    0.0680   -0.1444 H   0  0  0  0  0  0  0  0  0  0  0  0
   -5.1319   -1.2201   -0.2253 C   0  0  0  0  0  0  0  0  0  0  0  0
   -5.7209   -2.1470   -0.2777 H   0  0  0  0  0  0  0  0  0  0  0  0
   -3.7417   -1.2682   -0.2356 C   0  0  0  0  0  0  0  0  0  0  0  0
   -3.1984   -2.2217   -0.2983 H   0  0  0  0  0  0  0  0  0  0  0  0
   -5.7545    2.5766   -0.0112 C   0  0  0  0  0  0  0  0  0  0  0  0
   -5.4607    3.2206   -0.8661 H   0  0  0  0  0  0  0  0  0  0  0  0
   -5.4488    3.1273    0.9028 H   0  0  0  0  0  0  0  0  0  0  0  0
   -6.8559    2.4722   -0.0095 H   0  0  0  0  0  0  0  0  0  0  0  0
  1  2  1  0  0  0  0
  1 17  1  0  0  0  0
  4 19  1  0  0  0  0
  6  5  1  0  0  0  0
  7  8  1  0  0  0  0
  8  9  2  0  0  0  0
  8  3  1  0  0  0  0
  9 10  1  0  0  0  0
 11  9  1  0  0  0  0
 11 12  1  0  0  0  0
 13 11  2  0  0  0  0
 14 13  1  0  0  0  0
 15  7  2  0  0  0  0
 15 13  1  0  0  0  0
 16 15  1  0  0  0  0
 17  7  1  0  0  0  0
 17 18  1  0  0  0  0
 19 20  1  0  0  0  0
 19  2  2  0  0  0  0
 20 21  1  0  0  0  0
 21 22  2  0  0  0  0
 21  5  1  0  0  0  0
 22 29  1  0  0  0  0
 23 24  1  0  0  0  0
 23 22  1  0  0  0  0
 25 23  2  0  0  0  0
 26 25  1  0  0  0  0
 27 25  1  0  0  0  0
 27 20  2  0  0  0  0
 28 27  1  0  0  0  0
 29 32  1  0  0  0  0
 29 31  1  0  0  0  0
 30 29  1  0  0  0  0
M  CHG  2   3  -1   4  -1
M  END
