1,3,4
q = -2.0, confidence = 0.808

 29 30  0  0  0  0  0  0  0  0999 V2000
    0.4228    1.0893   -0.1232 N   0  0  0  0  0  2  0  0  0  0  0  0
    1.7510    1.3637   -0.0262 N   0  0  0  0  0  0  0  0  0  0  0  0
   -1.8677   -0.4009   -0.0005 O   0  5  0  0  0  0  0  0  0  0  0  0
    1.8768   -0.9361   -0.2228 O   0  5  0  0  0  0  0  0  0  0  0  0
    8.0908    0.4307    0.0824 O   0  0  0  0  0  0  0  0  0  0  0  0
    8.4648   -0.4677    0.0095 H   0  0  0  0  0  0  0  0  0  0  0  0
   -4.8311   -0.9220    0.0274 Br  0  0  0  0  0  0  0  0  0  0  0  0
   -1.8426    2.0105   -0.1612 C   0  0  0  0  0  0  0  0  0  0  0  0
   -2.5187    0.7495   -0.0995 C   0  0  0  0  0  0  0  0  0  0  0  0
   -3.9383    0.7451   -0.0971 C   0  0  0  0  0  0  0  0  0  0  0  0
   -4.6689    1.9368   -0.1724 C   0  0  0  0  0  0  0  0  0  0  0  0
   -5.7672    1.8913   -0.1729 H   0  0  0  0  0  0  0  0  0  0  0  0
   -3.9984    3.1722   -0.2420 C   0  0  0  0  0  0  0  0  0  0  0  0
   -4.5778    4.1045   -0.3025 H   0  0  0  0  0  0  0  0  0  0  0  0
   -2.6046    3.2052   -0.2290 C   0  0  0  0  0  0  0  0  0  0  0  0
   -2.0702    4.1664   -0.2749 H   0  0  0  0  0  0  0  0  0  0  0  0
   -0.4039    2.1083   -0.1140 C   0  0  0  0  0  3  0  0  0  0  0  0
    0.0510    3.1154   -0.0635 H   0  0  0  0  0  0  0  0  0  0  0  0
    2.4561    0.2483   -0.1054 C   0  0  0  0  0  0  0  0  0  0  0  0
    3.9205    0.2866   -0.0560 C   0  0  0  0  0  0  0  0  0  0  0  0
    4.6627   -0.9118   -0.1392 C   0  0  0  0  0  0  0  0  0  0  0  0
    4.1235   -1.8642   -0.2408 H   0  0  0  0  0  0  0  0  0  0  0  0
    6.0580   -0.8853   -0.0952 C   0  0  0  0  0  0  0  0  0  0  0  0
    6.6323   -1.8240   -0.1622 H   0  0  0  0  0  0  0  0  0  0  0  0
    6.7389    0.3443    0.0343 C   0  0  0  0  0  0  0  0  0  0  0  0
    6.0026    1.5480    0.1184 C   0  0  0  0  0  0  0  0  0  0  0  0
    6.5520    2.4950    0.2175 H   0  0  0  0  0  0  0  0  0  0  0  0
    4.6115    1.5159    0.0721 C   0  0  0  0  0  0  0  0  0  0  0  0
    4.0254    2.4435    0.1340 H   0  0  0  0  0  0  0  0  0  0  0  0
  1 17  1  0  0  0  0
  1  2  1  0  0  0  0
  4 19  1  0  0  0  0
  6  5  1  0  0  0  0
  8 17  1  0  0  0  0
  8  9  1  0  0  0  0
  9 10  2  0  0  0  0
  9  3  1  0  0  0  0
 10  7  1  0  0  0  0
 11 10  1  0  0  0  0
 12 11  1  0  0  0  0
 13 15  1  0  0  0  0
 13 11  2  0  0  0  0
 14 13  1  0  0  0  0
 15  8  2  0  0  0  0
 16 15  1  0  0  0  0
 17 18  1  0  0  0  0
 19 20  1  0  0  0  0
 19  2  2  0  0  0  0
 20 28  1  0  0  0  0
 21 23  1  0  0  0  0
 21 20  2  0  0  0  0
 22 21  1  0  0  0  0
 23 25  2  0  0  0  0
 24 23  1  0  0  0  0
 25  5  1  0  0  0  0
 25 26  1  0  0  0  0
 26 27  1  0  0  0  0
 28 26  2  0  0  0  0
 28 29  1  0  0  0  0
M  CHG  2   3  -1   4  -1
M  END
