1,2,5
q = -2.0, confidence = 0.932

 46 47  0  0  0  0  0  0  0  0999 V2000
    1.9432   -0.4604   -0.5167 O   0  5  0  0  0  0  0  0  0  0  0  0
   -1.9432   -0.4778   -0.5282 O   0  5  0  0  0  0  0  0  0  0  0  0
    2.5793    1.6959   -0.1007 N   0  0  0  0  0  0  0  0  0  0  0  0
    1.2555    1.8507   -0.1410 N   0  0  0  0  0  2  0  0  0  0  0  0
   -1.2569    1.8254   -0.1443 N   0  0  0  0  0  2  0  0  0  0  0  0
   -2.5809    1.6750   -0.0990 N   0  0  0  0  0  0  0  0  0  0  0  0
    2.8720    0.4092   -0.3088 C   0  0  0  0  0  0  0  0  0  0  0  0
    4.2790   -0.0334   -0.2746 C   0  0  0  0  0  0  0  0  0  0  0  0
    4.5860   -1.3920   -0.4932 C   0  0  0  0  0  0  0  0  0  0  0  0
    3.7599   -2.0910   -0.6869 H   0  0  0  0  0  0  0  0  0  0  0  0
    5.9153   -1.8276   -0.4617 C   0  0  0  0  0  0  0  0  0  0  0  0
    6.1433   -2.8916   -0.6331 H   0  0  0  0  0  0  0  0  0  0  0  0
    6.9731   -0.9282   -0.2152 C   0  0  0  0  0  0  0  0  0  0  0  0
    6.6531    0.4312    0.0034 C   0  0  0  0  0  0  0  0  0  0  0  0
    7.4641    1.1506    0.2003 H   0  0  0  0  0  0  0  0  0  0  0  0
    5.3301    0.8770   -0.0244 C   0  0  0  0  0  0  0  0  0  0  0  0
    5.0843    1.9343    0.1480 H   0  0  0  0  0  0  0  0  0  0  0  0
    0.7087    3.0298    0.1115 C   0  0  0  0  0  0  0  0  0  0  0  0
    1.5201    4.2520    0.4080 C   0  0  0  0  0  0  0  0  0  0  0  0
    2.5929    4.0135    0.3092 H   0  0  0  0  0  0  0  0  0  0  0  0
    1.3265    4.6151    1.4390 H   0  0  0  0  0  0  0  0  0  0  0  0
    1.2602    5.0775   -0.2859 H   0  0  0  0  0  0  0  0  0  0  0  0
   -0.7321    3.0125    0.1115 C   0  0  0  0  0  0  0  0  0  0  0  0
   -1.6001    4.1920    0.4128 C   0  0  0  0  0  0  0  0  0  0  0  0
   -2.3133    4.3604   -0.4194 H   0  0  0  0  0  0  0  0  0  0  0  0
   -1.0104    5.1093    0.5841 H   0  0  0  0  0  0  0  0  0  0  0  0
   -2.2242    3.9832    1.3062 H   0  0  0  0  0  0  0  0  0  0  0  0
   -2.8730    0.3864   -0.3132 C   0  0  0  0  0  0  0  0  0  0  0  0
   -4.2800   -0.0548   -0.2769 C   0  0  0  0  0  0  0  0  0  0  0  0
   -5.3272    0.8592   -0.0229 C   0  0  0  0  0  0  0  0  0  0  0  0
   -5.0753    1.9151    0.1496 H   0  0  0  0  0  0  0  0  0  0  0  0
   -6.6516    0.4178    0.0067 C   0  0  0  0  0  0  0  0  0  0  0  0
   -7.4600    1.1394    0.2057 H   0  0  0  0  0  0  0  0  0  0  0  0
   -6.9761   -0.9405   -0.2133 C   0  0  0  0  0  0  0  0  0  0  0  0
   -5.9219   -1.8431   -0.4642 C   0  0  0  0  0  0  0  0  0  0  0  0
   -6.1542   -2.9057   -0.6378 H   0  0  0  0  0  0  0  0  0  0  0  0
   -4.5912   -1.4119   -0.4976 C   0  0  0  0  0  0  0  0  0  0  0  0
   -3.7677   -2.1130   -0.6951 H   0  0  0  0  0  0  0  0  0  0  0  0
    8.4072   -1.3900   -0.1965 C   0  0  0  0  0  0  0  0  0  0  0  0
    8.4843   -2.4930   -0.2498 H   0  0  0  0  0  0  0  0  0  0  0  0
    8.9292   -1.0517    0.7223 H   0  0  0  0  0  0  0  0  0  0  0  0
    8.9723   -0.9709   -1.0563 H   0  0  0  0  0  0  0  0  0  0  0  0
   -8.4113   -1.3983   -0.1862 C   0  0  0  0  0  0  0  0  0  0  0  0
   -8.4945   -2.4961   -0.2999 H   0  0  0  0  0  0  0  0  0  0  0  0
   -8.9966   -0.9276   -1.0044 H   0  0  0  0  0  0  0  0  0  0  0  0
   -8.9078   -1.1127    0.7645 H   0  0  0  0  0  0  0  0  0  0  0  0
  1  7  1  0  0  0  0
  2 28  1  0  0  0  0
  4  3  1  0  0  0  0
  4 18  1  0  0  0  0
  5  6  1  0  0  0  0
  5 23  1  0  0  0  0
  7  8  1  0  0  0  0
  7  3  2  0  0  0  0
  8 16  1  0  0  0  0
  9 11  1  0  0  0  0
  9  8  2  0  0  0  0
 10  9  1  0  0  0  0
 11 13  2  0  0  0  0
 12 11  1  0  0  0  0
 13 39  1  0  0  0  0
 13 14  1  0  0  0  0
 14 15  1  0  0  0  0
 16 14  2  0  0  0  0
 16 17  1  0  0  0  0
 18 23  2  0  0  0  0
 18 19  1  0  0  0  0
 19 21  1  0  0  0  0
 20 19  1  0  0  0  0
 22 19  1  0  0  0  0
 23 24  1  0  0  0  0
 24 26  1  0  0  0  0
 24 27  1  0  0  0  0
 25 24  1  0  0  0  0
 28 29  1  0  0  0  0
 28  6  2  0  0  0  0
 29 30  1  0  0  0  0
 30 32  2  0  0  0  0
 30 31  1  0  0  0  0
 32 33  1  0  0  0  0
 34 43  1  0  0  0  0
 34 32  1  0  0  0  0
 35 34  2  0  0  0  0
 36 35  1  0  0  0  0
 37 35  1  0  0  0  0
 37 29  2  0  0  0  0
 38 37  1  0  0  0  0
 39 41  1  0  0  0  0
 40 39  1  0  0  0  0
 42 39  1  0  0  0  0
 43 46  1  0  0  0  0
 44 43  1  0  0  0  0
 45 43  1  0  0  0  0
M  CHG  2   1  -1   2  -1
M  END
