1,2,9
q = -2.0, confidence = 0.786

 44 45  0  0  0  0  0  0  0  0999 V2000
   -1.9543   -0.3370   -0.4973 O   0  5  0  0  0  0  0  0  0  0  0  0
    1.9511   -0.3531   -0.5113 O   0  5  0  0  0  0  0  0  0  0  0  0
    8.5569   -2.4174   -0.3237 O   0  0  0  0  0  0  0  0  0  0  0  0
    9.2055   -0.3650    0.0613 O   0  0  0  0  0  0  0  0  0  0  0  0
   -8.5501   -2.4163   -0.3230 O   0  0  0  0  0  0  0  0  0  0  0  0
   -9.2076   -0.3654    0.0544 O   0  0  0  0  0  0  0  0  0  0  0  0
   -2.5812    1.8299   -0.1153 N   0  0  0  0  0  0  0  0  0  0  0  0
   -1.2567    1.9819   -0.1570 N   0  0  0  0  0  2  0  0  0  0  0  0
    1.2532    1.9577   -0.1609 N   0  0  0  0  0  2  0  0  0  0  0  0
    2.5779    1.8107   -0.1148 N   0  0  0  0  0  0  0  0  0  0  0  0
    8.3436   -1.2182   -0.1481 N   0  0  0  0  0  0  0  0  0  0  0  0
   -8.3418   -1.2158   -0.1504 N   0  0  0  0  0  0  0  0  0  0  0  0
   -2.8740    0.5417   -0.3043 C   0  0  0  0  0  0  0  0  0  0  0  0
   -4.2875    0.1076   -0.2641 C   0  0  0  0  0  0  0  0  0  0  0  0
   -4.5912   -1.2578   -0.4598 C   0  0  0  0  0  0  0  0  0  0  0  0
   -3.7641   -1.9584   -0.6410 H   0  0  0  0  0  0  0  0  0  0  0  0
   -5.9175   -1.6962   -0.4235 C   0  0  0  0  0  0  0  0  0  0  0  0
   -6.1932   -2.7486   -0.5710 H   0  0  0  0  0  0  0  0  0  0  0  0
   -6.9301   -0.7554   -0.1915 C   0  0  0  0  0  0  0  0  0  0  0  0
   -6.6565    0.6064    0.0037 C   0  0  0  0  0  0  0  0  0  0  0  0
   -7.4921    1.2962    0.1804 H   0  0  0  0  0  0  0  0  0  0  0  0
   -5.3280    1.0356   -0.0328 C   0  0  0  0  0  0  0  0  0  0  0  0
   -5.0723    2.0934    0.1172 H   0  0  0  0  0  0  0  0  0  0  0  0
   -0.7123    3.1653    0.0790 C   0  0  0  0  0  0  0  0  0  0  0  0
   -1.5214    4.3921    0.3566 C   0  0  0  0  0  0  0  0  0  0  0  0
   -2.5954    4.1567    0.2678 H   0  0  0  0  0  0  0  0  0  0  0  0
   -1.2619    5.2037   -0.3536 H   0  0  0  0  0  0  0  0  0  0  0  0
   -1.3200    4.7735    1.3794 H   0  0  0  0  0  0  0  0  0  0  0  0
    0.7299    3.1488    0.0789 C   0  0  0  0  0  0  0  0  0  0  0  0
    1.5953    4.3336    0.3619 C   0  0  0  0  0  0  0  0  0  0  0  0
    2.3103    4.4881   -0.4714 H   0  0  0  0  0  0  0  0  0  0  0  0
    2.2164    4.1414    1.2609 H   0  0  0  0  0  0  0  0  0  0  0  0
    1.0046    5.2532    0.5154 H   0  0  0  0  0  0  0  0  0  0  0  0
    2.8712    0.5210   -0.3105 C   0  0  0  0  0  0  0  0  0  0  0  0
    4.2850    0.0893   -0.2683 C   0  0  0  0  0  0  0  0  0  0  0  0
    5.3208    1.0213   -0.0317 C   0  0  0  0  0  0  0  0  0  0  0  0
    5.0582    2.0772    0.1203 H   0  0  0  0  0  0  0  0  0  0  0  0
    6.6509    0.5972    0.0069 C   0  0  0  0  0  0  0  0  0  0  0  0
    7.4836    1.2895    0.1877 H   0  0  0  0  0  0  0  0  0  0  0  0
    6.9301   -0.7631   -0.1914 C   0  0  0  0  0  0  0  0  0  0  0  0
    5.9218   -1.7074   -0.4287 C   0  0  0  0  0  0  0  0  0  0  0  0
    6.2024   -2.7583   -0.5786 H   0  0  0  0  0  0  0  0  0  0  0  0
    4.5939   -1.2743   -0.4672 C   0  0  0  0  0  0  0  0  0  0  0  0
    3.7698   -1.9775   -0.6525 H   0  0  0  0  0  0  0  0  0  0  0  0
  1 13  1  0  0  0  0
  2 34  1  0  0  0  0
  3 11  2  0  0  0  0
  5 12  2  0  0  0  0
  8  7  1  0  0  0  0
  8 24  1  0  0  0  0
  9 10  1  0  0  0  0
  9 29  1  0  0  0  0
 11  4  2  0  0  0  0
 12  6  2  0  0  0  0
 13 14  1  0  0  0  0
 13  7  2  0  0  0  0
 14 22  1  0  0  0  0
 15 17  1  0  0  0  0
 15 14  2  0  0  0  0
 16 15  1  0  0  0  0
 17 19  2  0  0  0  0
 18 17  1  0  0  0  0
 19 12  1  0  0  0  0
 19 20  1  0  0  0  0
 20 21  1  0  0  0  0
 22 20  2  0  0  0  0
 22 23  1  0  0  0  0
 24 25  1  0  0  0  0
 25 28  1  0  0  0  0
 26 25  1  0  0  0  0
 27 25  1  0  0  0  0
 29 24  2  0  0  0  0
 29 30  1  0  0  0  0
 30 33  1  0  0  0  0
 30 32  1  0  0  0  0
 31 30  1  0  0  0  0
 34 35  1  0  0  0  0
 34 10  2  0  0  0  0
 35 36  1  0  0  0  0
 36 38  2  0  0  0  0
 36 37  1  0  0  0  0
 38 39  1  0  0  0  0
 40 11  1  0  0  0  0
 40 38  1  0  0  0  0
 41 40  2  0  0  0  0
 42 41  1  0  0  0  0
 43 41  1  0  0  0  0
 43 35  2  0  0  0  0
 44 43  1  0  0  0  0
M  CHG  2   1  -1   2  -1
M  END
