1,2,7
q = -2.0, confidence = 0.87

 35 36  0  0  1  0  0  0  0  0999 V2000
   -2.0150    0.8386   -0.7901 O   0  5  0  0  0  0  0  0  0  0  0  0
    1.1530   -1.2505    0.1340 O   0  0  0  0  0  1  0  0  0  0  0  0
    3.2042   -1.1855    1.2428 O   0  0  0  0  0  0  0  0  0  0  0  0
    5.2356    0.7359   -1.1107 O   0  0  0  0  0  0  0  0  0  0  0  0
    3.2140    2.5895   -0.5074 O   0  0  0  0  0  0  0  0  0  0  0  0
    5.0336   -3.1514    0.6310 O   0  0  0  0  0  0  0  0  0  0  0  0
    0.6553    1.2902    0.4124 N   0  0  0  0  0  2  0  0  0  0  0  0
    0.0905    2.4256    0.7378 C   0  0  0  0  0  3  0  0  0  0  0  0
   -1.2437    2.8427    0.4172 C   0  0  0  0  0  0  0  0  0  0  0  0
   -2.2173    2.0393   -0.3055 C   0  0  0  0  0  0  0  0  0  0  0  0
   -3.5129    2.6036   -0.5031 C   0  0  0  0  0  0  0  0  0  0  0  0
   -3.8386    3.8724   -0.0392 C   0  0  0  0  0  0  0  0  0  0  0  0
   -2.8917    4.6585    0.6618 C   0  0  0  0  0  0  0  0  0  0  0  0
   -1.6251    4.1391    0.8813 C   0  0  0  0  0  0  0  0  0  0  0  0
    2.0051    0.9106    0.8102 C   0  0  1  0  0  0  0  0  0  0  0  0
    1.9314   -0.6134    1.1213 C   0  0  1  0  0  0  0  0  0  0  0  0
    4.0951   -0.9808    0.1280 C   0  0  1  0  0  0  0  0  0  0  0  0
    4.3390    0.5196   -0.0441 C   0  0  2  0  0  0  0  0  0  0  0  0
    2.9978    1.1906   -0.3338 C   0  0  2  0  0  0  0  0  0  0  0  0
    5.3431   -1.7892    0.4563 C   0  0  0  0  0  0  0  0  0  0  0  0
    0.7014    3.1354    1.3315 H   0  0  0  0  0  0  0  0  0  0  0  0
   -4.2414    1.9838   -1.0448 H   0  0  0  0  0  0  0  0  0  0  0  0
   -4.8506    4.2679   -0.2183 H   0  0  0  0  0  0  0  0  0  0  0  0
   -3.1577    5.6597    1.0289 H   0  0  0  0  0  0  0  0  0  0  0  0
   -0.8756    4.7310    1.4308 H   0  0  0  0  0  0  0  0  0  0  0  0
    2.3319    1.4804    1.7060 H   0  0  0  0  0  0  0  0  0  0  0  0
    1.4527   -0.7618    2.1162 H   0  0  0  0  0  0  0  0  0  0  0  0
    3.6311   -1.3902   -0.7971 H   0  0  0  0  0  0  0  0  0  0  0  0
    4.7394    0.9217    0.9226 H   0  0  0  0  0  0  0  0  0  0  0  0
    2.6057    0.7402   -1.2718 H   0  0  0  0  0  0  0  0  0  0  0  0
    5.8234   -1.3367    1.3623 H   0  0  0  0  0  0  0  0  0  0  0  0
    6.0603   -1.6925   -0.3832 H   0  0  0  0  0  0  0  0  0  0  0  0
    5.1644    1.6917   -1.3072 H   0  0  0  0  0  0  0  0  0  0  0  0
    2.5910    2.9002   -1.1888 H   0  0  0  0  0  0  0  0  0  0  0  0
    4.2449   -3.1586    1.2097 H   0  0  0  0  0  0  0  0  0  0  0  0
  1 10  1  0  0  0  0
  2 16  1  0  0  0  0
  4 18  1  0  0  0  0
  5 19  1  0  0  0  0
  6 35  1  0  0  0  0
  7  8  1  0  0  0  0
  7 15  1  0  0  0  0
  8 21  1  0  0  0  0
  9  8  1  0  0  0  0
  9 14  1  0  0  0  0
 10  9  2  0  0  0  0
 11 10  1  0  0  0  0
 11 12  2  0  0  0  0
 12 13  1  0  0  0  0
 13 14  2  0  0  0  0
 13 24  1  0  0  0  0
 14 25  1  0  0  0  0
 15 16  1  0  0  0  0
 15 26  1  1  0  0  0
 16  3  1  0  0  0  0
 16 27  1  1  0  0  0
 17 28  1  6  0  0  0
 17 20  1  0  0  0  0
 17  3  1  0  0  0  0
 18 17  1  0  0  0  0
 18 29  1  1  0  0  0
 19 30  1  6  0  0  0
 19 18  1  0  0  0  0
 19 15  1  0  0  0  0
 20  6  1  0  0  0  0
 20 31  1  0  0  0  0
 22 11  1  0  0  0  0
 23 12  1  0  0  0  0
 32 20  1  0  0  0  0
 33  4  1  0  0  0  0
 34  5  1  0  0  0  0
M  CHG  1   1  -1
M  END
