1,2,5
q = -2.0, confidence = 0.92

 31 31  0  0  0  0  0  0  0  0999 V2000
    1.7483   -1.1002   -0.6690 O   0  5  0  0  0  0  0  0  0  0  0  0
   -1.7330    0.2708   -1.1561 O   0  5  0  0  0  0  0  0  0  0  0  0
   -3.1220   -1.9154    1.9170 O   0  0  0  0  0  0  0  0  0  0  0  0
   -2.1712   -1.8781    1.6210 H   0  0  0  0  0  0  0  0  0  0  0  0
    0.3823    1.2123   -0.2315 N   0  0  0  0  0  2  0  0  0  0  0  0
   -0.6754    2.0831   -0.1897 N   0  0  0  0  0  0  0  0  0  0  0  0
    2.7760   -0.4840   -0.1573 C   0  0  0  0  0  0  0  0  0  0  0  0
    4.0175   -1.1795   -0.0384 C   0  0  0  0  0  0  0  0  0  0  0  0
    4.0307   -2.2285   -0.3695 H   0  0  0  0  0  0  0  0  0  0  0  0
    5.1580   -0.5574    0.4681 C   0  0  0  0  0  0  0  0  0  0  0  0
    6.0984   -1.1279    0.5425 H   0  0  0  0  0  0  0  0  0  0  0  0
    5.1202    0.7920    0.8869 C   0  0  0  0  0  0  0  0  0  0  0  0
    6.0216    1.2794    1.2884 H   0  0  0  0  0  0  0  0  0  0  0  0
    3.9196    1.4949    0.7857 C   0  0  0  0  0  0  0  0  0  0  0  0
    3.8647    2.5482    1.1085 H   0  0  0  0  0  0  0  0  0  0  0  0
    2.7401    0.8930    0.2760 C   0  0  0  0  0  0  0  0  0  0  0  0
    1.5311    1.6689    0.1980 C   0  0  0  0  0  3  0  0  0  0  0  0
    1.5554    2.7237    0.5415 H   0  0  0  0  0  0  0  0  0  0  0  0
   -1.7515    1.4677   -0.6623 C   0  0  0  0  0  0  0  0  0  0  0  0
   -3.0912    2.1614   -0.5547 C   0  0  0  0  0  0  0  0  0  0  0  0
   -2.9605    3.0312    0.1200 H   0  0  0  0  0  0  0  0  0  0  0  0
   -3.3844    2.5598   -1.5519 H   0  0  0  0  0  0  0  0  0  0  0  0
   -4.1697    1.1849   -0.0445 C   0  0  0  0  0  0  0  0  0  0  0  0
   -5.1033    1.7525    0.1566 H   0  0  0  0  0  0  0  0  0  0  0  0
   -4.4070    0.4844   -0.8743 H   0  0  0  0  0  0  0  0  0  0  0  0
   -3.7264    0.3586    1.1846 C   0  0  0  0  0  0  0  0  0  0  0  0
   -4.3004    0.6315    2.0962 H   0  0  0  0  0  0  0  0  0  0  0  0
   -2.6624    0.5699    1.4245 H   0  0  0  0  0  0  0  0  0  0  0  0
   -3.8129   -1.1646    0.9514 C   0  0  0  0  0  0  0  0  0  0  0  0
   -4.8849   -1.4796    0.9622 H   0  0  0  0  0  0  0  0  0  0  0  0
   -3.4271   -1.3648   -0.0770 H   0  0  0  0  0  0  0  0  0  0  0  0
  1  7  1  0  0  0  0
  2 19  1  0  0  0  0
  4  3  1  0  0  0  0
  5  6  1  0  0  0  0
  5 17  1  0  0  0  0
  7  8  2  0  0  0  0
  7 16  1  0  0  0  0
  8 10  1  0  0  0  0
  9  8  1  0  0  0  0
 10 11  1  0  0  0  0
 10 12  2  0  0  0  0
 12 13  1  0  0  0  0
 14 12  1  0  0  0  0
 14 15  1  0  0  0  0
 16 14  2  0  0  0  0
 17 16  1  0  0  0  0
 17 18  1  0  0  0  0
 19 20  1  0  0  0  0
 19  6  2  0  0  0  0
 20 23  1  0  0  0  0
 20 21  1  0  0  0  0
 22 20  1  0  0  0  0
 23 24  1  0  0  0  0
 23 26  1  0  0  0  0
 25 23  1  0  0  0  0
 26 28  1  0  0  0  0
 26 27  1  0  0  0  0
 29 30  1  0  0  0  0
 29 26  1  0  0  0  0
 29  3  1  0  0  0  0
 31 29  1  0  0  0  0
M  CHG  2   1  -1   2  -1
M  END
