4,5,8
q = -2.0, confidence = 0.79

 24 24  0  0  1  0  0  0  0  0999 V2000
    1.9087    2.5495   -1.1619 Br  0  0  0  0  0  0  0  0  0  0  0  0
    5.7031   -1.5199    0.1365 Br  0  0  0  0  0  0  0  0  0  0  0  0
   -3.3310   -2.4114    1.0500 S   0  0  0  0  0  0  0  0  0  0  0  0
    0.0439    0.1838   -1.1904 O   0  0  0  0  0  1  0  0  0  0  0  0
   -3.2170   -1.3654   -0.1513 O   0  0  0  0  0  1  0  0  0  0  0  0
   -4.7533   -2.7744    1.1869 O   0  0  0  0  0  1  0  0  0  0  0  0
   -2.5632   -1.9650    2.2336 O   0  0  0  0  0  1  0  0  0  0  0  0
   -0.7468   -2.3738   -0.6996 N   0  0  0  0  0  2  0  0  0  0  0  0
    1.2351   -0.2177   -0.8792 C   0  0  2  0  0  3  0  0  0  0  0  0
    2.3179    0.7237   -0.8354 C   0  0  0  0  0  0  0  0  0  0  0  0
    3.6232    0.3441   -0.5340 C   0  0  0  0  0  0  0  0  0  0  0  0
    4.4191    1.1000   -0.4934 H   0  0  0  0  0  0  0  0  0  0  0  0
    3.9132   -1.0152   -0.2724 C   0  0  0  0  0  0  0  0  0  0  0  0
    2.9050   -1.9726   -0.3070 C   0  0  0  0  0  0  0  0  0  0  0  0
    3.1353   -3.0290   -0.1055 H   0  0  0  0  0  0  0  0  0  0  0  0
    1.5678   -1.5896   -0.5886 C   0  0  0  0  0  0  0  0  0  0  0  0
    0.5438   -2.5959   -0.6607 C   0  0  0  0  0  0  0  0  0  0  0  0
    0.8842   -3.6500   -0.7060 H   0  0  0  0  0  0  0  0  0  0  0  0
   -1.6417   -3.5220   -0.8887 C   0  0  0  0  0  0  0  0  0  0  0  0
   -1.0512   -4.4090   -1.2074 H   0  0  0  0  0  0  0  0  0  0  0  0
   -2.3399   -3.2701   -1.7132 H   0  0  0  0  0  0  0  0  0  0  0  0
   -2.4321   -3.8689    0.3666 C   0  0  0  0  0  0  0  0  0  0  0  0
   -1.7848   -4.2239    1.1911 H   0  0  0  0  0  0  0  0  0  0  0  0
   -3.2032   -4.6293    0.1412 H   0  0  0  0  0  0  0  0  0  0  0  0
  1 10  1  0  0  0  0
  3  6  1  0  0  0  0
  3  7  1  0  0  0  0
  5  3  1  0  0  0  0
  8 17  1  0  0  0  0
  9  4  1  6  0  0  0
  9 10  1  0  0  0  0
  9 16  1  0  0  0  0
 10 11  2  0  0  0  0
 11 12  1  0  0  0  0
 11 13  1  0  0  0  0
 13  2  1  0  0  0  0
 14 13  2  0  0  0  0
 14 15  1  0  0  0  0
 16 14  1  0  0  0  0
 17 16  2  0  0  0  0
 18 17  1  0  0  0  0
 19  8  1  0  0  0  0
 19 22  1  0  0  0  0
 20 19  1  0  0  0  0
 21 19  1  0  0  0  0
 22  3  1  0  0  0  0
 22 23  1  0  0  0  0
 24 22  1  0  0  0  0
M  END
