1,2,4
q = -2.0, confidence = 0.894

 31 33  0  0  0  0  0  0  0  0999 V2000
   -1.0499   -1.7966    0.0772 O   0  5  0  0  0  0  0  0  0  0  0  0
    2.4937   -0.4891   -0.3915 O   0  5  0  0  0  0  0  0  0  0  0  0
    3.7135    2.8602    0.1049 O   0  0  0  0  0  0  0  0  0  0  0  0
    0.2454    0.5753   -0.0435 N   0  0  0  0  0  2  0  0  0  0  0  0
    1.2931    1.4499    0.0690 N   0  0  0  0  0  0  0  0  0  0  0  0
   -2.1720   -1.0879    0.0577 C   0  0  0  0  0  0  0  0  0  0  0  0
   -2.1877    0.3354    0.0407 C   0  0  0  0  0  0  0  0  0  0  0  0
   -3.4676    1.0278    0.0469 C   0  0  0  0  0  0  0  0  0  0  0  0
   -3.5907    2.4457    0.0010 C   0  0  0  0  0  0  0  0  0  0  0  0
   -2.6935    3.0770   -0.0531 H   0  0  0  0  0  0  0  0  0  0  0  0
   -4.8350    3.0665    0.0090 C   0  0  0  0  0  0  0  0  0  0  0  0
   -4.8907    4.1650   -0.0285 H   0  0  0  0  0  0  0  0  0  0  0  0
   -6.0261    2.3027    0.0589 C   0  0  0  0  0  0  0  0  0  0  0  0
   -7.0050    2.8044    0.0637 H   0  0  0  0  0  0  0  0  0  0  0  0
   -5.9443    0.9183    0.0955 C   0  0  0  0  0  0  0  0  0  0  0  0
   -6.8575    0.3039    0.1280 H   0  0  0  0  0  0  0  0  0  0  0  0
   -4.6844    0.2566    0.0887 C   0  0  0  0  0  0  0  0  0  0  0  0
   -4.6057   -1.1695    0.1171 C   0  0  0  0  0  0  0  0  0  0  0  0
   -5.5424   -1.7477    0.1492 H   0  0  0  0  0  0  0  0  0  0  0  0
   -3.3922   -1.8244    0.1023 C   0  0  0  0  0  0  0  0  0  0  0  0
   -3.3194   -2.9206    0.1241 H   0  0  0  0  0  0  0  0  0  0  0  0
   -0.9639    1.0848    0.0690 C   0  0  0  0  0  3  0  0  0  0  0  0
   -0.9982    2.1794    0.2042 H   0  0  0  0  0  0  0  0  0  0  0  0
    2.4268    0.8108   -0.1550 C   0  0  0  0  0  0  0  0  0  0  0  0
    3.6968    1.5126   -0.1310 C   0  0  0  0  0  0  0  0  0  0  0  0
    4.9895    1.0463   -0.3178 C   0  0  0  0  0  0  0  0  0  0  0  0
    5.2634    0.0075   -0.5283 H   0  0  0  0  0  0  0  0  0  0  0  0
    5.8433    2.1828   -0.1873 C   0  0  0  0  0  0  0  0  0  0  0  0
    6.9348    2.2109   -0.2735 H   0  0  0  0  0  0  0  0  0  0  0  0
    5.0114    3.2539    0.0691 C   0  0  0  0  0  0  0  0  0  0  0  0
    5.1900    4.3202    0.2424 H   0  0  0  0  0  0  0  0  0  0  0  0
  2 24  1  0  0  0  0
  4 22  1  0  0  0  0
  4  5  1  0  0  0  0
  6  1  1  0  0  0  0
  6 20  1  0  0  0  0
  7  8  1  0  0  0  0
  7  6  2  0  0  0  0
  7 22  1  0  0  0  0
  8 17  1  0  0  0  0
  9 11  1  0  0  0  0
  9  8  2  0  0  0  0
 10  9  1  0  0  0  0
 11 13  2  0  0  0  0
 12 11  1  0  0  0  0
 13 14  1  0  0  0  0
 13 15  1  0  0  0  0
 15 16  1  0  0  0  0
 17 15  2  0  0  0  0
 17 18  1  0  0  0  0
 18 19  1  0  0  0  0
 20 18  2  0  0  0  0
 20 21  1  0  0  0  0
 22 23  1  0  0  0  0
 24 25  1  0  0  0  0
 24  5  2  0  0  0  0
 25  3  1  0  0  0  0
 26 28  1  0  0  0  0
 26 25  2  0  0  0  0
 27 26  1  0  0  0  0
 28 30  2  0  0  0  0
 29 28  1  0  0  0  0
 30  3  1  0  0  0  0
 30 31  1  0  0  0  0
M  CHG  2   1  -1   2  -1
M  END
