1,2,4
q = -2.0, confidence = 0.83

 27 28  0  0  0  0  0  0  0  0999 V2000
   -0.1361    1.0394    1.7467 O   0  5  0  0  0  0  0  0  0  0  0  0
    1.3393   -1.8588   -0.0149 O   0  5  0  0  0  0  0  0  0  0  0  0
    2.8243   -3.2517   -0.9399 O   0  0  0  0  0  0  0  0  0  0  0  0
    1.7391    0.7111   -0.1289 N   0  0  0  0  0  2  0  0  0  0  0  0
   -0.6288    2.0100    1.0224 C   0  0  0  0  0  0  0  0  0  0  0  0
   -1.7466    2.7535    1.4907 C   0  0  0  0  0  0  0  0  0  0  0  0
   -2.3022    3.7638    0.7076 C   0  0  0  0  0  0  0  0  0  0  0  0
   -1.7530    4.1036   -0.5523 C   0  0  0  0  0  0  0  0  0  0  0  0
   -0.6294    3.4214   -1.0083 C   0  0  0  0  0  0  0  0  0  0  0  0
   -0.0533    2.3703   -0.2464 C   0  0  0  0  0  0  0  0  0  0  0  0
    1.1683    1.7597   -0.6773 C   0  0  0  0  0  3  0  0  0  0  0  0
    3.0704    0.3849   -0.4968 C   0  0  0  0  0  0  0  0  0  0  0  0
    4.0256    1.4149   -0.6489 C   0  0  0  0  0  0  0  0  0  0  0  0
    5.3421    1.1163   -1.0202 C   0  0  0  0  0  0  0  0  0  0  0  0
    5.7259   -0.2157   -1.2444 C   0  0  0  0  0  0  0  0  0  0  0  0
    4.7858   -1.2402   -1.0821 C   0  0  0  0  0  0  0  0  0  0  0  0
    3.4639   -0.9632   -0.6927 C   0  0  0  0  0  0  0  0  0  0  0  0
    2.5187   -2.1314   -0.5591 C   0  0  0  0  0  0  0  0  0  0  0  0
   -2.1668    2.4827    2.4697 H   0  0  0  0  0  0  0  0  0  0  0  0
   -3.1857    4.3065    1.0785 H   0  0  0  0  0  0  0  0  0  0  0  0
   -2.2018    4.9062   -1.1547 H   0  0  0  0  0  0  0  0  0  0  0  0
   -0.1692    3.6858   -1.9738 H   0  0  0  0  0  0  0  0  0  0  0  0
    1.6908    2.2384   -1.5300 H   0  0  0  0  0  0  0  0  0  0  0  0
    3.7349    2.4530   -0.4305 H   0  0  0  0  0  0  0  0  0  0  0  0
    6.0751    1.9311   -1.1195 H   0  0  0  0  0  0  0  0  0  0  0  0
    6.7599   -0.4541   -1.5348 H   0  0  0  0  0  0  0  0  0  0  0  0
    5.0407   -2.2964   -1.2541 H   0  0  0  0  0  0  0  0  0  0  0  0
  3 18  2  0  0  0  0
  5  6  1  0  0  0  0
  5  1  1  0  0  0  0
  6 19  1  0  0  0  0
  7 20  1  0  0  0  0
  7  6  2  0  0  0  0
  8  7  1  0  0  0  0
  9  8  2  0  0  0  0
  9 10  1  0  0  0  0
 10  5  2  0  0  0  0
 11 10  1  0  0  0  0
 11  4  1  0  0  0  0
 12  4  1  0  0  0  0
 13 12  1  0  0  0  0
 13 24  1  0  0  0  0
 14 13  2  0  0  0  0
 15 16  2  0  0  0  0
 15 14  1  0  0  0  0
 16 17  1  0  0  0  0
 17 18  1  0  0  0  0
 17 12  2  0  0  0  0
 18  2  1  0  0  0  0
 21  8  1  0  0  0  0
 22  9  1  0  0  0  0
 23 11  1  0  0  0  0
 25 14  1  0  0  0  0
 26 15  1  0  0  0  0
 27 16  1  0  0  0  0
M  CHG  2   1  -1   2  -1
M  END
