1,2,3
q = -2.0, confidence = 0.888

 25 26  0  0  0  0  0  0  0  0999 V2000
    1.7830    0.0290    0.6658 N   0  0  0  0  0  2  0  0  0  0  0  0
    0.5066   -1.2226   -1.2525 O   0  5  0  0  0  0  0  0  0  0  0  0
   -0.6126    1.4681    1.1883 O   0  5  0  0  0  0  0  0  0  0  0  0
    1.7559   -1.5591   -1.0824 C   0  0  0  0  0  0  0  0  0  0  0  0
    2.4031   -2.5446   -1.8810 C   0  0  0  0  0  0  0  0  0  0  0  0
    3.7434   -2.8734   -1.6692 C   0  0  0  0  0  0  0  0  0  0  0  0
    4.4729   -2.2243   -0.6511 C   0  0  0  0  0  0  0  0  0  0  0  0
    6.1646   -2.6480   -0.3954 Cl  0  0  0  0  0  0  0  0  0  0  0  0
    3.8775   -1.2511    0.1575 C   0  0  0  0  0  0  0  0  0  0  0  0
    2.5250   -0.9168   -0.0522 C   0  0  0  0  0  0  0  0  0  0  0  0
    2.2373    0.7529    1.6590 C   0  0  0  0  0  3  0  0  0  0  0  0
    1.4921    1.7300    2.3949 C   0  0  0  0  0  0  0  0  0  0  0  0
    2.1540    2.4285    3.4449 C   0  0  0  0  0  0  0  0  0  0  0  0
    1.5148    3.3950    4.2126 C   0  0  0  0  0  0  0  0  0  0  0  0
    2.0521    3.9186    5.0172 H   0  0  0  0  0  0  0  0  0  0  0  0
    0.1561    3.6922    3.9377 C   0  0  0  0  0  0  0  0  0  0  0  0
   -0.5265    3.0332    2.9231 C   0  0  0  0  0  0  0  0  0  0  0  0
    0.1008    2.0304    2.1106 C   0  0  0  0  0  0  0  0  0  0  0  0
    1.8155   -3.0376   -2.6692 H   0  0  0  0  0  0  0  0  0  0  0  0
    4.2408   -3.6345   -2.2878 H   0  0  0  0  0  0  0  0  0  0  0  0
    4.4734   -0.7639    0.9413 H   0  0  0  0  0  0  0  0  0  0  0  0
    3.2904    0.6105    1.9720 H   0  0  0  0  0  0  0  0  0  0  0  0
    3.2110    2.1799    3.6395 H   0  0  0  0  0  0  0  0  0  0  0  0
   -0.3693    4.4554    4.5350 H   0  0  0  0  0  0  0  0  0  0  0  0
   -1.5808    3.2534    2.6994 H   0  0  0  0  0  0  0  0  0  0  0  0
  1 11  1  0  0  0  0
  2  4  1  0  0  0  0
  3 18  1  0  0  0  0
  4 10  1  0  0  0  0
  5  6  1  0  0  0  0
  5  4  2  0  0  0  0
  6  7  2  0  0  0  0
  7  8  1  0  0  0  0
  7  9  1  0  0  0  0
  9 21  1  0  0  0  0
 10  9  2  0  0  0  0
 10  1  1  0  0  0  0
 11 22  1  0  0  0  0
 11 12  1  0  0  0  0
 12 13  1  0  0  0  0
 13 23  1  0  0  0  0
 13 14  2  0  0  0  0
 14 15  1  0  0  0  0
 16 14  1  0  0  0  0
 16 24  1  0  0  0  0
 17 16  2  0  0  0  0
 18 12  2  0  0  0  0
 18 17  1  0  0  0  0
 19  5  1  0  0  0  0
 20  6  1  0  0  0  0
 25 17  1  0  0  0  0
M  CHG  2   2  -1   3  -1
M  END
