1,2,3
q = -2.0, confidence = 0.908

 22 21  0  0  0  0  0  0  0  0999 V2000
   -2.0610    0.7396    0.1014 N   0  0  0  0  0  0  0  0  0  0  0  0
   -0.1471   -0.1005    1.7328 O   0  0  0  0  0  1  0  0  0  0  0  0
   -1.4550   -2.0078    0.0822 O   0  0  0  0  0  1  0  0  0  0  0  0
   -0.6931    1.1234    2.1017 C   0  0  0  0  0  0  0  0  0  0  0  0
   -2.1119    1.1721    1.5246 C   0  0  0  0  0  0  0  0  0  0  0  0
   -3.1164   -0.2603   -0.2291 C   0  0  0  0  0  0  0  0  0  0  0  0
   -2.7682   -1.6112    0.3968 C   0  0  0  0  0  0  0  0  0  0  0  0
   -2.0566    1.8986   -0.8327 C   0  0  0  0  0  0  0  0  0  0  0  0
   -3.3743    2.6630   -0.9566 C   0  0  0  0  0  0  0  0  0  0  0  0
   -0.0872    1.9789    1.7074 H   0  0  0  0  0  0  0  0  0  0  0  0
   -0.7260    1.2306    3.2102 H   0  0  0  0  0  0  0  0  0  0  0  0
   -2.7436    0.4587    2.0882 H   0  0  0  0  0  0  0  0  0  0  0  0
   -2.5734    2.1776    1.6203 H   0  0  0  0  0  0  0  0  0  0  0  0
   -3.1262   -0.3614   -1.3332 H   0  0  0  0  0  0  0  0  0  0  0  0
   -4.1221    0.0880    0.0987 H   0  0  0  0  0  0  0  0  0  0  0  0
   -2.9042   -1.5681    1.5076 H   0  0  0  0  0  0  0  0  0  0  0  0
   -3.4916   -2.3730    0.0237 H   0  0  0  0  0  0  0  0  0  0  0  0
   -1.7325    1.5077   -1.8170 H   0  0  0  0  0  0  0  0  0  0  0  0
   -1.2466    2.5738   -0.4868 H   0  0  0  0  0  0  0  0  0  0  0  0
   -3.2310    3.5290   -1.6329 H   0  0  0  0  0  0  0  0  0  0  0  0
   -3.7360    3.0597    0.0141 H   0  0  0  0  0  0  0  0  0  0  0  0
   -4.1789    2.0378   -1.3914 H   0  0  0  0  0  0  0  0  0  0  0  0
  1  5  1  0  0  0  0
  2  4  1  0  0  0  0
  3  7  1  0  0  0  0
  4 11  1  0  0  0  0
  5 13  1  0  0  0  0
  5 12  1  0  0  0  0
  5  4  1  0  0  0  0
  6 15  1  0  0  0  0
  6  1  1  0  0  0  0
  6  7  1  0  0  0  0
  7 16  1  0  0  0  0
  8 19  1  0  0  0  0
  8  1  1  0  0  0  0
  9  8  1  0  0  0  0
  9 21  1  0  0  0  0
 10  4  1  0  0  0  0
 14  6  1  0  0  0  0
 17  7  1  0  0  0  0
 18  8  1  0  0  0  0
 20  9  1  0  0  0  0
 22  9  1  0  0  0  0
M  END
