1,4,6
q = -2.0, confidence = 0.89

 33 34  0  0  1  0  0  0  0  0999 V2000
   -0.5087   -0.8317    0.0001 N   0  0  0  0  0  2  0  0  0  0  0  0
    0.8379   -1.0580    0.0046 N   0  0  0  0  0  0  0  0  0  0  0  0
    1.1505   -2.0442   -0.0102 H   0  0  0  0  0  0  0  0  0  0  0  0
   -2.6943    0.4890   -0.1843 O   0  5  0  0  0  0  0  0  0  0  0  0
   -0.6146   -3.1182   -0.0265 O   0  0  0  0  0  0  0  0  0  0  0  0
    0.9909    1.1543   -0.0050 O   0  0  0  0  0  1  0  0  0  0  0  0
    3.0929   -2.4230   -0.0421 O   0  0  0  0  0  0  0  0  0  0  0  0
   -3.3606   -0.6641   -0.1218 C   0  0  0  0  0  0  0  0  0  0  0  0
   -2.6904   -1.9165   -0.0436 C   0  0  0  0  0  0  0  0  0  0  0  0
   -3.4506   -3.1042   -0.0048 C   0  0  0  0  0  0  0  0  0  0  0  0
   -2.8938   -4.0513    0.0517 H   0  0  0  0  0  0  0  0  0  0  0  0
   -4.8464   -3.0692   -0.0375 C   0  0  0  0  0  0  0  0  0  0  0  0
   -5.4263   -4.0031   -0.0040 H   0  0  0  0  0  0  0  0  0  0  0  0
   -5.5044   -1.8256   -0.1137 C   0  0  0  0  0  0  0  0  0  0  0  0
   -6.6044   -1.7849   -0.1392 H   0  0  0  0  0  0  0  0  0  0  0  0
   -4.7749   -0.6342   -0.1561 C   0  0  0  0  0  0  0  0  0  0  0  0
   -5.2699    0.3455   -0.2164 H   0  0  0  0  0  0  0  0  0  0  0  0
   -1.2161   -2.0287   -0.0231 C   0  0  0  0  0  0  0  0  0  0  0  0
    1.6085    0.0240    0.0008 C   0  0  2  0  0  3  0  0  0  0  0  0
    3.0769   -0.0448   -0.0064 C   0  0  0  0  0  0  0  0  0  0  0  0
    3.8127   -1.2680   -0.0284 C   0  0  0  0  0  0  0  0  0  0  0  0
    5.2195   -1.2346   -0.0349 C   0  0  0  0  0  0  0  0  0  0  0  0
    5.7942   -2.1694   -0.0518 H   0  0  0  0  0  0  0  0  0  0  0  0
    5.8959   -0.0055   -0.0194 C   0  0  0  0  0  0  0  0  0  0  0  0
    6.9964   -0.0006   -0.0244 H   0  0  0  0  0  0  0  0  0  0  0  0
    5.1840    1.2034    0.0033 C   0  0  0  0  0  0  0  0  0  0  0  0
    5.7174    2.1645    0.0170 H   0  0  0  0  0  0  0  0  0  0  0  0
    3.7862    1.1751    0.0100 C   0  0  0  0  0  0  0  0  0  0  0  0
    3.1951    2.1017    0.0304 H   0  0  0  0  0  0  0  0  0  0  0  0
    3.7625   -3.6768   -0.0609 C   0  0  0  0  0  0  0  0  0  0  0  0
    2.9671   -4.4437   -0.0676 H   0  0  0  0  0  0  0  0  0  0  0  0
    4.3969   -3.8106    0.8415 H   0  0  0  0  0  0  0  0  0  0  0  0
    4.3898   -3.7874   -0.9715 H   0  0  0  0  0  0  0  0  0  0  0  0
  1  2  1  0  0  0  0
  3  2  1  0  0  0  0
  4  8  1  0  0  0  0
  5 18  2  0  0  0  0
  7 21  1  0  0  0  0
  8  9  1  0  0  0  0
  9 18  1  0  0  0  0
  9 10  2  0  0  0  0
 10 11  1  0  0  0  0
 12 10  1  0  0  0  0
 12 13  1  0  0  0  0
 14 12  2  0  0  0  0
 15 14  1  0  0  0  0
 16  8  2  0  0  0  0
 16 14  1  0  0  0  0
 17 16  1  0  0  0  0
 18  1  1  0  0  0  0
 19  6  1  6  0  0  0
 19  2  1  0  0  0  0
 20 19  1  0  0  0  0
 20 28  1  0  0  0  0
 21 20  2  0  0  0  0
 22 21  1  0  0  0  0
 22 24  2  0  0  0  0
 23 22  1  0  0  0  0
 24 26  1  0  0  0  0
 25 24  1  0  0  0  0
 26 28  2  0  0  0  0
 26 27  1  0  0  0  0
 28 29  1  0  0  0  0
 30  7  1  0  0  0  0
 30 32  1  0  0  0  0
 31 30  1  0  0  0  0
 33 30  1  0  0  0  0
M  CHG  1   4  -1
M  END
