2,3,4
q = -2.0, confidence = 0.904

 33 33  0  0  1  0  0  0  0  0999 V2000
    1.9086    4.0595    1.0972 Si  0  0  0  0  0  0  0  0  0  0  0  0
   -0.1706    0.1248   -1.6968 N   0  0  0  0  0  2  0  0  0  0  0  0
   -0.6890   -2.1921   -0.9409 O   0  0  0  0  0  1  0  0  0  0  0  0
    0.0897    1.1779    0.5522 O   0  0  0  0  0  1  0  0  0  0  0  0
   -0.6956   -2.0967   -2.3402 C   0  0  0  0  0  0  0  0  0  0  0  0
   -1.6933   -2.3881   -2.7422 H   0  0  0  0  0  0  0  0  0  0  0  0
    0.0671   -2.7900   -2.7663 H   0  0  0  0  0  0  0  0  0  0  0  0
   -0.3798   -0.6824   -2.7579 C   0  0  2  0  0  3  0  0  0  0  0  0
   -0.2745   -0.1731   -4.0540 C   0  0  0  0  0  0  0  0  0  0  0  0
   -0.4461   -0.8256   -4.9210 H   0  0  0  0  0  0  0  0  0  0  0  0
    0.0577    1.1803   -4.2119 C   0  0  0  0  0  0  0  0  0  0  0  0
    0.1456    1.6070   -5.2224 H   0  0  0  0  0  0  0  0  0  0  0  0
    0.2841    1.9934   -3.0910 C   0  0  0  0  0  0  0  0  0  0  0  0
    0.5587    3.0517   -3.1934 H   0  0  0  0  0  0  0  0  0  0  0  0
    0.1660    1.4242   -1.8196 C   0  0  0  0  0  0  0  0  0  0  0  0
    0.3548    2.1121   -0.4842 C   0  0  2  0  0  0  0  0  0  0  0  0
   -0.4326    2.9003   -0.4244 H   0  0  0  0  0  0  0  0  0  0  0  0
    1.7309    2.7422   -0.2682 C   0  0  0  0  0  0  0  0  0  0  0  0
    2.8091    2.3494   -0.9801 C   0  0  0  0  0  0  0  0  0  0  0  0
    2.7672    1.5703   -1.7611 H   0  0  0  0  0  0  0  0  0  0  0  0
    3.8062    2.7813   -0.7846 H   0  0  0  0  0  0  0  0  0  0  0  0
    3.2599    3.5175    2.3060 C   0  0  0  0  0  0  0  0  0  0  0  0
    2.9886    2.5663    2.8052 H   0  0  0  0  0  0  0  0  0  0  0  0
    3.4285    4.2861    3.0883 H   0  0  0  0  0  0  0  0  0  0  0  0
    4.2204    3.3551    1.7755 H   0  0  0  0  0  0  0  0  0  0  0  0
    0.2545    4.2760    1.9873 C   0  0  0  0  0  0  0  0  0  0  0  0
   -0.1208    3.3043    2.3649 H   0  0  0  0  0  0  0  0  0  0  0  0
   -0.5203    4.6888    1.3090 H   0  0  0  0  0  0  0  0  0  0  0  0
    0.3559    4.9721    2.8449 H   0  0  0  0  0  0  0  0  0  0  0  0
    2.4165    5.6935    0.2828 C   0  0  0  0  0  0  0  0  0  0  0  0
    1.6444    6.0367   -0.4359 H   0  0  0  0  0  0  0  0  0  0  0  0
    3.3692    5.5787   -0.2735 H   0  0  0  0  0  0  0  0  0  0  0  0
    2.5569    6.4919    1.0408 H   0  0  0  0  0  0  0  0  0  0  0  0
  1 26  1  0  0  0  0
  1 22  1  0  0  0  0
  5  3  1  0  0  0  0
  6  5  1  0  0  0  0
  7  5  1  0  0  0  0
  8  5  1  6  0  0  0
  8  2  1  0  0  0  0
  9  8  1  0  0  0  0
 10  9  1  0  0  0  0
 11  9  2  0  0  0  0
 11 13  1  0  0  0  0
 12 11  1  0  0  0  0
 13 15  2  0  0  0  0
 14 13  1  0  0  0  0
 15  2  1  0  0  0  0
 15 16  1  0  0  0  0
 16 17  1  1  0  0  0
 16 18  1  0  0  0  0
 16  4  1  0  0  0  0
 18  1  1  0  0  0  0
 19 21  1  0  0  0  0
 19 18  2  0  0  0  0
 20 19  1  0  0  0  0
 22 23  1  0  0  0  0
 22 24  1  0  0  0  0
 25 22  1  0  0  0  0
 26 27  1  0  0  0  0
 26 29  1  0  0  0  0
 28 26  1  0  0  0  0
 30 33  1  0  0  0  0
 30  1  1  0  0  0  0
 31 30  1  0  0  0  0
 32 30  1  0  0  0  0
M  END
