1,2,3
q = -2.0, confidence = 0.742

 24 25  0  0  0  0  0  0  0  0999 V2000
   -2.1228   -1.3947   -0.1518 O   0  5  0  0  0  0  0  0  0  0  0  0
    1.6265   -1.2268   -0.5014 O   0  5  0  0  0  0  0  0  0  0  0  0
   -0.3558    0.5332   -0.0402 N   0  0  0  0  0  2  0  0  0  0  0  0
    0.5239    1.4618    0.0621 N   0  0  0  0  0  2  0  0  0  0  0  0
   -2.5953   -0.1857   -0.1053 C   0  0  0  0  0  0  0  0  0  0  0  0
   -1.6909    0.9325   -0.0611 C   0  0  0  0  0  0  0  0  0  0  0  0
   -2.1623    2.2632   -0.0442 C   0  0  0  0  0  0  0  0  0  0  0  0
   -3.5358    2.5111   -0.0593 C   0  0  0  0  0  0  0  0  0  0  0  0
   -4.4442    1.4226   -0.0939 C   0  0  0  0  0  0  0  0  0  0  0  0
   -3.9948    0.1022   -0.1130 C   0  0  0  0  0  0  0  0  0  0  0  0
    2.3760   -0.1951   -0.2736 C   0  0  0  0  0  0  0  0  0  0  0  0
    1.8581    1.1275    0.0258 C   0  0  0  0  0  0  0  0  0  0  0  0
    2.7617    2.2052    0.2410 C   0  0  0  0  0  0  0  0  0  0  0  0
    4.1398    2.0311    0.1765 C   0  0  0  0  0  0  0  0  0  0  0  0
    4.6537    0.7465   -0.1303 C   0  0  0  0  0  0  0  0  0  0  0  0
    3.7994   -0.3291   -0.3550 C   0  0  0  0  0  0  0  0  0  0  0  0
   -1.4164    3.0709   -0.0139 H   0  0  0  0  0  0  0  0  0  0  0  0
   -3.9146    3.5450   -0.0430 H   0  0  0  0  0  0  0  0  0  0  0  0
   -5.5283    1.6235   -0.1062 H   0  0  0  0  0  0  0  0  0  0  0  0
   -4.6925   -0.7481   -0.1410 H   0  0  0  0  0  0  0  0  0  0  0  0
    2.3074    3.1845    0.4578 H   0  0  0  0  0  0  0  0  0  0  0  0
    4.8208    2.8773    0.3543 H   0  0  0  0  0  0  0  0  0  0  0  0
    5.7439    0.5941   -0.1913 H   0  0  0  0  0  0  0  0  0  0  0  0
    4.1828   -1.3326   -0.5935 H   0  0  0  0  0  0  0  0  0  0  0  0
  1  5  1  0  0  0  0
  2 11  1  0  0  0  0
  3  4  1  0  0  0  0
  5  6  1  0  0  0  0
  6  7  2  0  0  0  0
  6  3  1  0  0  0  0
  7 17  1  0  0  0  0
  8  7  1  0  0  0  0
  8 18  1  0  0  0  0
  9  8  2  0  0  0  0
 10  5  2  0  0  0  0
 10  9  1  0  0  0  0
 11 12  1  0  0  0  0
 12  4  1  0  0  0  0
 12 13  2  0  0  0  0
 13 21  1  0  0  0  0
 14 13  1  0  0  0  0
 14 22  1  0  0  0  0
 15 14  2  0  0  0  0
 16 11  2  0  0  0  0
 16 15  1  0  0  0  0
 19  9  1  0  0  0  0
 20 10  1  0  0  0  0
 23 15  1  0  0  0  0
 24 16  1  0  0  0  0
M  CHG  2   1  -1   2  -1
M  END
