1,2,7
q = -2.0, confidence = 0.944

 49 52  0  0  1  0  0  0  0  0999 V2000
   -0.9742   -1.2374    0.2279 O   0  0  0  0  0  1  0  0  0  0  0  0
    2.4238    0.0440   -0.6326 O   0  5  0  0  0  0  0  0  0  0  0  0
    2.9169    4.0946    0.3645 O   0  0  0  0  0  0  0  0  0  0  0  0
    2.1063    3.4712    0.3408 H   0  0  0  0  0  0  0  0  0  0  0  0
   -3.2929   -0.8572    0.4369 N   0  0  0  0  0  0  0  0  0  0  0  0
   -4.1636    0.1989    0.4422 N   0  0  0  0  0  0  0  0  0  0  0  0
    0.3475    1.2200    0.1003 N   0  0  0  0  0  2  0  0  0  0  0  0
    1.4781    1.9998    0.1112 N   0  0  0  0  0  0  0  0  0  0  0  0
   -3.7991   -2.1809    0.4828 C   0  0  0  0  0  0  0  0  0  0  0  0
   -2.9451   -3.2898    0.6656 C   0  0  0  0  0  0  0  0  0  0  0  0
   -1.8668   -3.1311    0.7802 H   0  0  0  0  0  0  0  0  0  0  0  0
   -3.4928   -4.5802    0.6997 C   0  0  0  0  0  0  0  0  0  0  0  0
   -2.8204   -5.4401    0.8434 H   0  0  0  0  0  0  0  0  0  0  0  0
   -4.8742   -4.7836    0.5622 C   0  0  0  0  0  0  0  0  0  0  0  0
   -5.2933   -5.8004    0.5920 H   0  0  0  0  0  0  0  0  0  0  0  0
   -5.7164   -3.6725    0.3903 C   0  0  0  0  0  0  0  0  0  0  0  0
   -6.8028   -3.8143    0.2836 H   0  0  0  0  0  0  0  0  0  0  0  0
   -5.1902   -2.3764    0.3487 C   0  0  0  0  0  0  0  0  0  0  0  0
   -5.8305   -1.4953    0.2151 H   0  0  0  0  0  0  0  0  0  0  0  0
   -3.4310    1.3064    0.3324 C   0  0  0  0  0  0  0  0  0  0  0  0
   -4.1327    2.5998    0.2179 C   0  0  0  0  0  0  0  0  0  0  0  0
   -5.2783    2.8508    1.0054 C   0  0  0  0  0  0  0  0  0  0  0  0
   -5.6012    2.0823    1.7225 H   0  0  0  0  0  0  0  0  0  0  0  0
   -5.9833    4.0541    0.8737 C   0  0  0  0  0  0  0  0  0  0  0  0
   -6.8698    4.2383    1.4997 H   0  0  0  0  0  0  0  0  0  0  0  0
   -5.5606    5.0257   -0.0487 C   0  0  0  0  0  0  0  0  0  0  0  0
   -6.1130    5.9724   -0.1483 H   0  0  0  0  0  0  0  0  0  0  0  0
   -4.4328    4.7797   -0.8483 C   0  0  0  0  0  0  0  0  0  0  0  0
   -4.1052    5.5279   -1.5862 H   0  0  0  0  0  0  0  0  0  0  0  0
   -3.7268    3.5760   -0.7196 C   0  0  0  0  0  0  0  0  0  0  0  0
   -2.8610    3.3752   -1.3682 H   0  0  0  0  0  0  0  0  0  0  0  0
   -1.9763   -0.4346    0.3011 C   0  0  2  0  0  3  0  0  0  0  0  0
   -2.0181    0.9961    0.2615 C   0  0  0  0  0  0  0  0  0  0  0  0
   -0.8297    1.8026    0.3260 C   0  0  0  0  0  0  0  0  0  0  0  0
   -0.8479    3.2616    0.6865 C   0  0  0  0  0  0  0  0  0  0  0  0
   -0.0974    3.4479    1.4808 H   0  0  0  0  0  0  0  0  0  0  0  0
   -1.8413    3.5823    1.0382 H   0  0  0  0  0  0  0  0  0  0  0  0
   -0.5501    3.8959   -0.1744 H   0  0  0  0  0  0  0  0  0  0  0  0
    2.5382    1.2963   -0.2847 C   0  0  0  0  0  0  0  0  0  0  0  0
    3.8472    1.9568   -0.3203 C   0  0  0  0  0  0  0  0  0  0  0  0
    3.9691    3.3444    0.0194 C   0  0  0  0  0  0  0  0  0  0  0  0
    5.2533    3.9375   -0.0124 C   0  0  0  0  0  0  0  0  0  0  0  0
    5.3309    5.0030    0.2481 H   0  0  0  0  0  0  0  0  0  0  0  0
    6.3775    3.1865   -0.3632 C   0  0  0  0  0  0  0  0  0  0  0  0
    7.3656    3.6725   -0.3800 H   0  0  0  0  0  0  0  0  0  0  0  0
    6.2604    1.8202   -0.6933 C   0  0  0  0  0  0  0  0  0  0  0  0
    7.1509    1.2356   -0.9672 H   0  0  0  0  0  0  0  0  0  0  0  0
    5.0007    1.2191   -0.6692 C   0  0  0  0  0  0  0  0  0  0  0  0
    4.8676    0.1560   -0.9174 H   0  0  0  0  0  0  0  0  0  0  0  0
  2 39  1  0  0  0  0
  4  3  1  0  0  0  0
  5  6  1  0  0  0  0
  5  9  1  0  0  0  0
  7  8  1  0  0  0  0
  7 34  1  0  0  0  0
  9 10  1  0  0  0  0
 10 12  2  0  0  0  0
 10 11  1  0  0  0  0
 12 13  1  0  0  0  0
 14 15  1  0  0  0  0
 14 12  1  0  0  0  0
 16 14  2  0  0  0  0
 17 16  1  0  0  0  0
 18 16  1  0  0  0  0
 18  9  2  0  0  0  0
 19 18  1  0  0  0  0
 20  6  2  0  0  0  0
 21 20  1  0  0  0  0
 21 22  1  0  0  0  0
 22 23  1  0  0  0  0
 24 22  2  0  0  0  0
 24 25  1  0  0  0  0
 26 24  1  0  0  0  0
 27 26  1  0  0  0  0
 28 30  1  0  0  0  0
 28 26  2  0  0  0  0
 29 28  1  0  0  0  0
 30 21  2  0  0  0  0
 31 30  1  0  0  0  0
 32  1  1  6  0  0  0
 32  5  1  0  0  0  0
 33 32  1  0  0  0  0
 33 34  2  0  0  0  0
 33 20  1  0  0  0  0
 34 35  1  0  0  0  0
 35 37  1  0  0  0  0
 35 36  1  0  0  0  0
 38 35  1  0  0  0  0
 39  8  2  0  0  0  0
 40 39  1  0  0  0  0
 40 41  1  0  0  0  0
 41  3  1  0  0  0  0
 42 41  2  0  0  0  0
 42 43  1  0  0  0  0
 44 42  1  0  0  0  0
 45 44  1  0  0  0  0
 46 48  1  0  0  0  0
 46 44  2  0  0  0  0
 47 46  1  0  0  0  0
 48 40  2  0  0  0  0
 49 48  1  0  0  0  0
M  CHG  1   2  -1
M  END
