3,5,6
q = -2.0, confidence = 0.948

 28 29  0  0  0  0  0  0  0  0999 V2000
   -4.0017    1.8085    0.0492 Cl  0  0  0  0  0  0  0  0  0  0  0  0
   -5.4902   -3.4227   -0.0982 Cl  0  0  0  0  0  0  0  0  0  0  0  0
    0.5346   -1.2353   -0.0051 N   0  0  0  0  0  2  0  0  0  0  0  0
    1.7794   -1.7578    0.1233 N   0  0  0  0  0  0  0  0  0  0  0  0
   -1.2889    0.7107    0.1243 O   0  5  0  0  0  0  0  0  0  0  0  0
    2.3284    0.4063   -0.4399 O   0  5  0  0  0  0  0  0  0  0  0  0
   -1.8672   -1.6243    0.0245 C   0  0  0  0  0  0  0  0  0  0  0  0
   -2.2041   -0.2311    0.0346 C   0  0  0  0  0  0  0  0  0  0  0  0
   -3.5832    0.1190    0.0100 C   0  0  0  0  0  0  0  0  0  0  0  0
   -4.5887   -0.8509   -0.0334 C   0  0  0  0  0  0  0  0  0  0  0  0
   -5.6436   -0.5482   -0.0583 H   0  0  0  0  0  0  0  0  0  0  0  0
   -4.2322   -2.2143   -0.0434 C   0  0  0  0  0  0  0  0  0  0  0  0
   -2.8927   -2.6018   -0.0067 C   0  0  0  0  0  0  0  0  0  0  0  0
   -2.6292   -3.6689   -0.0093 H   0  0  0  0  0  0  0  0  0  0  0  0
   -0.4895   -2.0478    0.1030 C   0  0  0  0  0  3  0  0  0  0  0  0
   -0.2681   -3.1206    0.2568 H   0  0  0  0  0  0  0  0  0  0  0  0
    2.6781   -0.8169   -0.1340 C   0  0  0  0  0  0  0  0  0  0  0  0
    4.1169   -1.1418   -0.0765 C   0  0  0  0  0  0  0  0  0  0  0  0
    4.5473   -2.4472    0.2497 C   0  0  0  0  0  0  0  0  0  0  0  0
    3.7879   -3.2143    0.4564 H   0  0  0  0  0  0  0  0  0  0  0  0
    5.9145   -2.7391    0.3042 C   0  0  0  0  0  0  0  0  0  0  0  0
    6.2469   -3.7569    0.5587 H   0  0  0  0  0  0  0  0  0  0  0  0
    6.8629   -1.7365    0.0334 C   0  0  0  0  0  0  0  0  0  0  0  0
    7.9377   -1.9701    0.0762 H   0  0  0  0  0  0  0  0  0  0  0  0
    6.4385   -0.4377   -0.2925 C   0  0  0  0  0  0  0  0  0  0  0  0
    7.1801    0.3471   -0.5053 H   0  0  0  0  0  0  0  0  0  0  0  0
    5.0713   -0.1384   -0.3478 C   0  0  0  0  0  0  0  0  0  0  0  0
    4.7174    0.8711   -0.6007 H   0  0  0  0  0  0  0  0  0  0  0  0
  2 12  1  0  0  0  0
  3 15  1  0  0  0  0
  3  4  1  0  0  0  0
  6 17  1  0  0  0  0
  7  8  1  0  0  0  0
  7 15  1  0  0  0  0
  8  5  1  0  0  0  0
  9  8  2  0  0  0  0
  9  1  1  0  0  0  0
 10  9  1  0  0  0  0
 11 10  1  0  0  0  0
 12 10  2  0  0  0  0
 12 13  1  0  0  0  0
 13  7  2  0  0  0  0
 14 13  1  0  0  0  0
 15 16  1  0  0  0  0
 17 18  1  0  0  0  0
 17  4  2  0  0  0  0
 18 19  1  0  0  0  0
 19 21  2  0  0  0  0
 19 20  1  0  0  0  0
 21 22  1  0  0  0  0
 23 24  1  0  0  0  0
 23 21  1  0  0  0  0
 25 23  2  0  0  0  0
 26 25  1  0  0  0  0
 27 25  1  0  0  0  0
 27 18  2  0  0  0  0
 28 27  1  0  0  0  0
M  CHG  2   5  -1   6  -1
M  END
