3,4,6
q = -2.0, confidence = 0.962

 22 22  0  0  0  0  0  0  0  0999 V2000
    3.4141   -3.0342   -0.7309 Cl  0  0  0  0  0  0  0  0  0  0  0  0
    7.0256    0.9378    0.2454 Cl  0  0  0  0  0  0  0  0  0  0  0  0
    1.4920   -1.1343    0.4429 O   0  5  0  0  0  0  0  0  0  0  0  0
    0.8099    0.3570   -1.6888 O   0  5  0  0  0  0  0  0  0  0  0  0
    1.7789    2.0355   -2.8450 O   0  0  0  0  0  0  0  0  0  0  0  0
    0.7856    1.6619    0.6310 N   0  0  0  0  0  0  0  0  0  0  0  0
    2.7031   -0.6567    0.3952 C   0  0  0  0  0  0  0  0  0  0  0  0
    3.7847   -1.4348   -0.1239 C   0  0  0  0  0  0  0  0  0  0  0  0
    5.1009   -0.9653   -0.1663 C   0  0  0  0  0  0  0  0  0  0  0  0
    5.3784    0.3262    0.3096 C   0  0  0  0  0  0  0  0  0  0  0  0
    4.3541    1.1296    0.8313 C   0  0  0  0  0  0  0  0  0  0  0  0
    3.0398    0.6457    0.8886 C   0  0  0  0  0  0  0  0  0  0  0  0
    1.9319    1.4318    1.5367 C   0  0  0  0  0  0  0  0  0  0  0  0
    1.0625    2.4672   -0.5805 C   0  0  0  0  0  0  0  0  0  0  0  0
    1.2702    1.5739   -1.8288 C   0  0  0  0  0  0  0  0  0  0  0  0
   -0.0103    2.0549    1.1544 H   0  0  0  0  0  0  0  0  0  0  0  0
    5.8979   -1.5949   -0.5831 H   0  0  0  0  0  0  0  0  0  0  0  0
    4.5894    2.1360    1.2091 H   0  0  0  0  0  0  0  0  0  0  0  0
    2.3256    2.4040    1.9096 H   0  0  0  0  0  0  0  0  0  0  0  0
    1.5170    0.8615    2.3954 H   0  0  0  0  0  0  0  0  0  0  0  0
    0.1656    3.0830   -0.7838 H   0  0  0  0  0  0  0  0  0  0  0  0
    1.9374    3.1355   -0.4463 H   0  0  0  0  0  0  0  0  0  0  0  0
  1  8  1  0  0  0  0
  2 10  1  0  0  0  0
  5 15  2  0  0  0  0
  6 16  1  0  0  0  0
  6 13  1  0  0  0  0
  7  3  1  0  0  0  0
  7 12  1  0  0  0  0
  8  7  2  0  0  0  0
  9  8  1  0  0  0  0
  9 10  2  0  0  0  0
 10 11  1  0  0  0  0
 11 12  2  0  0  0  0
 11 18  1  0  0  0  0
 12 13  1  0  0  0  0
 13 19  1  0  0  0  0
 13 20  1  0  0  0  0
 14 22  1  0  0  0  0
 14  6  1  0  0  0  0
 15  4  1  0  0  0  0
 15 14  1  0  0  0  0
 17  9  1  0  0  0  0
 21 14  1  0  0  0  0
M  CHG  2   3  -1   4  -1
M  END
