1,2,6
q = -2.0, confidence = 0.848

 40 42  0  0  1  0  0  0  0  0999 V2000
    1.1397   -2.2298   -0.0347 O   0  5  0  0  0  0  0  0  0  0  0  0
    3.4524    0.5271   -0.9233 O   0  5  0  0  0  0  0  0  0  0  0  0
    3.5699    2.7155   -1.4401 O   0  0  0  0  0  0  0  0  0  0  0  0
   -4.6128    2.4843    0.7808 O   0  0  0  0  0  0  0  0  0  0  0  0
   -4.8715    1.7554    1.3759 H   0  0  0  0  0  0  0  0  0  0  0  0
    0.9263    0.3411   -0.8922 N   0  0  0  0  0  2  0  0  0  0  0  0
   -0.1685   -2.2613   -0.1172 C   0  0  0  0  0  0  0  0  0  0  0  0
   -0.8109   -3.4709    0.3166 C   0  0  0  0  0  0  0  0  0  0  0  0
   -0.1588   -4.2828    0.6690 H   0  0  0  0  0  0  0  0  0  0  0  0
   -2.1799   -3.5953    0.2978 C   0  0  0  0  0  0  0  0  0  0  0  0
   -2.6511   -4.5298    0.6416 H   0  0  0  0  0  0  0  0  0  0  0  0
   -3.0267   -2.5309   -0.1518 C   0  0  0  0  0  0  0  0  0  0  0  0
   -4.4422   -2.6607   -0.1250 C   0  0  0  0  0  0  0  0  0  0  0  0
   -4.8739   -3.6074    0.2361 H   0  0  0  0  0  0  0  0  0  0  0  0
   -5.2669   -1.6202   -0.5347 C   0  0  0  0  0  0  0  0  0  0  0  0
   -6.3612   -1.7304   -0.5043 H   0  0  0  0  0  0  0  0  0  0  0  0
   -4.6830   -0.4181   -1.0001 C   0  0  0  0  0  0  0  0  0  0  0  0
   -5.3205    0.4180   -1.3243 H   0  0  0  0  0  0  0  0  0  0  0  0
   -3.2992   -0.2731   -1.0482 C   0  0  0  0  0  0  0  0  0  0  0  0
   -2.8936    0.6778   -1.4178 H   0  0  0  0  0  0  0  0  0  0  0  0
   -2.4244   -1.3100   -0.6187 C   0  0  1  0  0  3  0  0  0  0  0  0
   -0.9746   -1.1769   -0.5940 C   0  0  0  0  0  0  0  0  0  0  0  0
   -0.3620    0.0635   -0.9503 C   0  0  0  0  0  0  0  0  0  0  0  0
   -1.0167    0.8921   -1.2636 H   0  0  0  0  0  0  0  0  0  0  0  0
    1.3897    1.7260   -1.0223 C   0  0  2  0  0  0  0  0  0  0  0  0
    0.9268    2.2044   -1.9124 H   0  0  0  0  0  0  0  0  0  0  0  0
    2.9178    1.7191   -1.1840 C   0  0  0  0  0  0  0  0  0  0  0  0
    1.0513    2.5754    0.2447 C   0  0  0  0  0  0  0  0  0  0  0  0
    1.5651    2.1014    1.1050 H   0  0  0  0  0  0  0  0  0  0  0  0
    1.5054    3.5711    0.0651 H   0  0  0  0  0  0  0  0  0  0  0  0
   -0.4279    2.6643    0.5106 C   0  0  0  0  0  0  0  0  0  0  0  0
   -1.0398    1.8091    1.4511 C   0  0  0  0  0  0  0  0  0  0  0  0
   -0.4072    1.1605    2.0776 H   0  0  0  0  0  0  0  0  0  0  0  0
   -2.4346    1.7519    1.5756 C   0  0  0  0  0  0  0  0  0  0  0  0
   -2.8953    1.0551    2.2948 H   0  0  0  0  0  0  0  0  0  0  0  0
   -3.2530    2.5514    0.7555 C   0  0  0  0  0  0  0  0  0  0  0  0
   -2.6550    3.4477   -0.1546 C   0  0  0  0  0  0  0  0  0  0  0  0
   -3.3041    4.0837   -0.7739 H   0  0  0  0  0  0  0  0  0  0  0  0
   -1.2611    3.4945   -0.2708 C   0  0  0  0  0  0  0  0  0  0  0  0
   -0.8075    4.1818   -1.0034 H   0  0  0  0  0  0  0  0  0  0  0  0
  3 27  2  0  0  0  0
  4  5  1  0  0  0  0
  7  1  1  0  0  0  0
  7  8  2  0  0  0  0
  8  9  1  0  0  0  0
 10  8  1  0  0  0  0
 10 11  1  0  0  0  0
 12 13  1  0  0  0  0
 12 10  2  0  0  0  0
 13 14  1  0  0  0  0
 15 16  1  0  0  0  0
 15 13  2  0  0  0  0
 17 15  1  0  0  0  0
 18 17  1  0  0  0  0
 19 17  2  0  0  0  0
 20 19  1  0  0  0  0
 21 19  1  1  0  0  0
 21 22  1  0  0  0  0
 21 12  1  0  0  0  0
 22  7  1  0  0  0  0
 23  6  1  0  0  0  0
 23 22  2  0  0  0  0
 24 23  1  0  0  0  0
 25 26  1  6  0  0  0
 25  6  1  0  0  0  0
 25 28  1  0  0  0  0
 27 25  1  0  0  0  0
 27  2  1  0  0  0  0
 28 31  1  0  0  0  0
 28 29  1  0  0  0  0
 30 28  1  0  0  0  0
 31 32  1  0  0  0  0
 32 34  2  0  0  0  0
 32 33  1  0  0  0  0
 34 35  1  0  0  0  0
 36  4  1  0  0  0  0
 36 34  1  0  0  0  0
 37 36  2  0  0  0  0
 38 37  1  0  0  0  0
 39 37  1  0  0  0  0
 39 31  2  0  0  0  0
 40 39  1  0  0  0  0
M  CHG  2   1  -1   2  -1
M  END
