3,5,6
q = -2.0, confidence = 0.762

 22 21  0  0  0  0  0  0  0  0999 V2000
   -2.3598   -1.4169    1.0295 N   0  0  0  0  0  0  0  0  0  0  0  0
   -2.5935   -2.2994    0.5698 H   0  0  0  0  0  0  0  0  0  0  0  0
   -2.2293    1.3800    0.1954 N   0  0  0  0  0  0  0  0  0  0  0  0
   -1.6647    2.1617    0.5491 H   0  0  0  0  0  0  0  0  0  0  0  0
   -0.1380    0.2421    1.5154 O   0  5  0  0  0  0  0  0  0  0  0  0
   -1.8015   -0.2833   -1.8221 O   0  5  0  0  0  0  0  0  0  0  0  0
   -0.1010   -0.3638    3.6708 O   0  0  0  0  0  0  0  0  0  0  0  0
   -3.6605    0.3395   -2.9345 O   0  0  0  0  0  0  0  0  0  0  0  0
   -0.5314   -0.4927    2.5290 C   0  0  0  0  0  0  0  0  0  0  0  0
   -1.5749   -1.6072    2.2399 C   0  0  0  0  0  0  0  0  0  0  0  0
   -0.9887   -2.5435    2.1297 H   0  0  0  0  0  0  0  0  0  0  0  0
   -2.1893   -1.7241    3.1642 H   0  0  0  0  0  0  0  0  0  0  0  0
   -3.5258   -0.5537    1.1165 C   0  0  0  0  0  0  0  0  0  0  0  0
   -4.1990   -0.8073    1.9740 H   0  0  0  0  0  0  0  0  0  0  0  0
   -4.1197   -0.6843    0.1882 H   0  0  0  0  0  0  0  0  0  0  0  0
   -3.1323    0.9203    1.2724 C   0  0  0  0  0  0  0  0  0  0  0  0
   -4.0523    1.5458    1.3005 H   0  0  0  0  0  0  0  0  0  0  0  0
   -2.6009    1.0677    2.2327 H   0  0  0  0  0  0  0  0  0  0  0  0
   -2.8792    1.7120   -1.0912 C   0  0  0  0  0  0  0  0  0  0  0  0
   -2.2990    2.5242   -1.5749 H   0  0  0  0  0  0  0  0  0  0  0  0
   -3.9222    2.0680   -0.9567 H   0  0  0  0  0  0  0  0  0  0  0  0
   -2.8330    0.4985   -2.0480 C   0  0  0  0  0  0  0  0  0  0  0  0
  1 13  1  0  0  0  0
  1 10  1  0  0  0  0
  2  1  1  0  0  0  0
  3  4  1  0  0  0  0
  3 16  1  0  0  0  0
  5  9  1  0  0  0  0
  8 22  2  0  0  0  0
  9  7  2  0  0  0  0
 10  9  1  0  0  0  0
 10 12  1  0  0  0  0
 11 10  1  0  0  0  0
 13 16  1  0  0  0  0
 13 14  1  0  0  0  0
 15 13  1  0  0  0  0
 16 17  1  0  0  0  0
 16 18  1  0  0  0  0
 19 21  1  0  0  0  0
 19  3  1  0  0  0  0
 20 19  1  0  0  0  0
 22  6  1  0  0  0  0
 22 19  1  0  0  0  0
M  CHG  2   5  -1   6  -1
M  END
