3,6,7
q = -1.0, confidence = 0.114

 41 43  0  0  1  0  0  0  0  0999 V2000
   -3.1925    0.6902   -0.0675 N   0  0  0  0  0  0  0  0  0  0  0  0
   -1.8363    0.4211   -0.0902 C   0  0  0  0  0  0  0  0  0  0  0  0
    2.3701   -1.3625   -0.1409 O   0  5  0  0  0  0  0  0  0  0  0  0
   -3.4400    2.0429    0.0469 N   0  0  0  0  0  0  0  0  0  0  0  0
   -1.1797    1.7054    0.0194 C   0  0  0  0  0  0  0  0  0  0  0  0
   -1.3479   -0.7452   -0.2215 O   0  5  0  0  0  0  0  0  0  0  0  0
    0.9990    0.7771   -0.0555 N   0  0  0  0  0  2  0  0  0  0  0  0
   -2.2700    2.6565    0.0981 C   0  0  0  0  0  0  0  0  0  0  0  0
    2.3208    0.9683   -0.1188 N   0  0  0  0  0  0  0  0  0  0  0  0
   -2.2396    4.1463    0.2344 C   0  0  0  0  0  0  0  0  0  0  0  0
   -3.2797    4.5181    0.2890 H   0  0  0  0  0  0  0  0  0  0  0  0
   -1.7382    4.6334   -0.6266 H   0  0  0  0  0  0  0  0  0  0  0  0
   -1.7033    4.4665    1.1508 H   0  0  0  0  0  0  0  0  0  0  0  0
    7.1928   -0.1935   -0.2208 N   0  0  0  0  0  0  0  0  0  0  0  0
    8.2143   -0.2020   -0.2395 H   0  0  0  0  0  0  0  0  0  0  0  0
    0.2236    1.8826   -0.0029 C   0  0  1  0  0  3  0  0  0  0  0  0
    0.8319    3.2591    0.0304 C   0  0  0  0  0  0  0  0  0  0  0  0
    1.9304    3.1845   -0.0248 H   0  0  0  0  0  0  0  0  0  0  0  0
    0.5492    3.7837    0.9644 H   0  0  0  0  0  0  0  0  0  0  0  0
    0.4608    3.8730   -0.8132 H   0  0  0  0  0  0  0  0  0  0  0  0
    2.9610   -0.2114   -0.1387 C   0  0  0  0  0  0  0  0  0  0  0  0
    4.4116   -0.1662   -0.1690 C   0  0  0  0  0  0  0  0  0  0  0  0
    5.1568    1.0481   -0.2189 C   0  0  0  0  0  0  0  0  0  0  0  0
    4.6198    2.0053   -0.2351 H   0  0  0  0  0  0  0  0  0  0  0  0
    6.5337    1.0128   -0.2431 C   0  0  0  0  0  3  0  0  0  0  0  0
    7.1634    1.9117   -0.2789 H   0  0  0  0  0  0  0  0  0  0  0  0
    6.5161   -1.3840   -0.1737 C   0  0  0  0  0  0  0  0  0  0  0  0
    7.1303   -2.2947   -0.1572 H   0  0  0  0  0  0  0  0  0  0  0  0
    5.1394   -1.3962   -0.1484 C   0  0  0  0  0  0  0  0  0  0  0  0
    4.5748   -2.3379   -0.1093 H   0  0  0  0  0  0  0  0  0  0  0  0
   -4.2878   -0.2115   -0.1467 C   0  0  0  0  0  0  0  0  0  0  0  0
   -5.5944    0.3218   -0.1625 C   0  0  0  0  0  0  0  0  0  0  0  0
   -5.7164    1.4108   -0.1125 H   0  0  0  0  0  0  0  0  0  0  0  0
   -6.6957   -0.5387   -0.2369 C   0  0  0  0  0  0  0  0  0  0  0  0
   -7.7105   -0.1120   -0.2481 H   0  0  0  0  0  0  0  0  0  0  0  0
   -6.5141   -1.9298   -0.2962 C   0  0  0  0  0  0  0  0  0  0  0  0
   -7.3827   -2.6028   -0.3545 H   0  0  0  0  0  0  0  0  0  0  0  0
   -5.2117   -2.4513   -0.2790 C   0  0  0  0  0  0  0  0  0  0  0  0
   -5.0514   -3.5393   -0.3223 H   0  0  0  0  0  0  0  0  0  0  0  0
   -4.0934   -1.6089   -0.2050 C   0  0  0  0  0  0  0  0  0  0  0  0
   -3.0800   -2.0259   -0.1914 H   0  0  0  0  0  0  0  0  0  0  0  0
  1  4  1  0  0  0  0
  2  1  1  0  0  0  0
  2  5  2  0  0  0  0
  3 21  1  0  0  0  0
  4  8  2  0  0  0  0
  5  8  1  0  0  0  0
  6  2  1  0  0  0  0
  8 10  1  0  0  0  0
  9  7  1  0  0  0  0
 10 11  1  0  0  0  0
 10 13  1  0  0  0  0
 12 10  1  0  0  0  0
 14 27  1  0  0  0  0
 15 14  1  0  0  0  0
 16  7  1  6  0  0  0
 16  5  1  0  0  0  0
 16 17  1  0  0  0  0
 17 19  1  0  0  0  0
 18 17  1  0  0  0  0
 20 17  1  0  0  0  0
 21  9  2  0  0  0  0
 22 29  1  0  0  0  0
 22 21  1  0  0  0  0
 23 22  2  0  0  0  0
 24 23  1  0  0  0  0
 25 14  1  0  0  0  0
 25 23  1  0  0  0  0
 26 25  1  0  0  0  0
 27 28  1  0  0  0  0
 27 29  2  0  0  0  0
 29 30  1  0  0  0  0
 31  1  1  0  0  0  0
 32 31  1  0  0  0  0
 32 33  1  0  0  0  0
 34 32  2  0  0  0  0
 35 34  1  0  0  0  0
 36 38  2  0  0  0  0
 36 34  1  0  0  0  0
 37 36  1  0  0  0  0
 38 40  1  0  0  0  0
 39 38  1  0  0  0  0
 40 41  1  0  0  0  0
 40 31  2  0  0  0  0
M  CHG  2   3  -1   6  -1
M  END
