1,4,5
q = -1.0, confidence = 0.036

 34 35  0  0  1  0  0  0  0  0999 V2000
   -0.5862   -0.1782   -1.7795 N   0  0  0  0  0  2  0  0  0  0  0  0
   -1.6567    0.6585   -1.8897 N   0  0  0  0  0  0  0  0  0  0  0  0
   -2.2032    0.6852   -2.7557 H   0  0  0  0  0  0  0  0  0  0  0  0
   -1.3889    1.0707    0.3145 O   0  0  0  0  0  1  0  0  0  0  0  0
    1.3873   -1.4813   -0.3047 O   0  5  0  0  0  0  0  0  0  0  0  0
   -6.4847    4.7784   -0.6969 O   0  0  0  0  0  0  0  0  0  0  0  0
   -6.7742    4.9404    0.2209 H   0  0  0  0  0  0  0  0  0  0  0  0
    3.3249   -3.1662   -0.2727 O   0  0  0  0  0  0  0  0  0  0  0  0
   -2.0399    1.2954   -0.7468 C   0  0  2  0  0  3  0  0  0  0  0  0
   -3.1934    2.2054   -0.7702 C   0  0  0  0  0  0  0  0  0  0  0  0
   -3.7396    2.7426   -1.9598 C   0  0  0  0  0  0  0  0  0  0  0  0
   -3.2848    2.5220   -2.9382 H   0  0  0  0  0  0  0  0  0  0  0  0
   -4.8392    3.5988   -1.9208 C   0  0  0  0  0  0  0  0  0  0  0  0
   -5.2634    4.0277   -2.8394 H   0  0  0  0  0  0  0  0  0  0  0  0
   -5.4179    3.9450   -0.6799 C   0  0  0  0  0  0  0  0  0  0  0  0
   -4.8705    3.4256    0.5136 C   0  0  0  0  0  0  0  0  0  0  0  0
   -5.3167    3.6978    1.4841 H   0  0  0  0  0  0  0  0  0  0  0  0
   -3.7704    2.5697    0.4667 C   0  0  0  0  0  0  0  0  0  0  0  0
   -3.3346    2.1591    1.3886 H   0  0  0  0  0  0  0  0  0  0  0  0
   -0.1535   -0.8849   -2.7915 C   0  0  0  0  0  3  0  0  0  0  0  0
   -0.6523   -0.7711   -3.7751 H   0  0  0  0  0  0  0  0  0  0  0  0
    0.9365   -1.8031   -2.6977 C   0  0  0  0  0  0  0  0  0  0  0  0
    1.6288   -2.0362   -1.4519 C   0  0  0  0  0  0  0  0  0  0  0  0
    2.7192   -2.9967   -1.4750 C   0  0  0  0  0  0  0  0  0  0  0  0
    3.0695   -3.6558   -2.6513 C   0  0  0  0  0  0  0  0  0  0  0  0
    3.8966   -4.3787   -2.6481 H   0  0  0  0  0  0  0  0  0  0  0  0
    2.3705   -3.4086   -3.8631 C   0  0  0  0  0  0  0  0  0  0  0  0
    2.6664   -3.9429   -4.7774 H   0  0  0  0  0  0  0  0  0  0  0  0
    1.3276   -2.5027   -3.8832 C   0  0  0  0  0  0  0  0  0  0  0  0
    0.7771   -2.3027   -4.8157 H   0  0  0  0  0  0  0  0  0  0  0  0
    4.3945   -4.0819   -0.1929 C   0  0  0  0  0  0  0  0  0  0  0  0
    4.0778   -5.1167   -0.4588 H   0  0  0  0  0  0  0  0  0  0  0  0
    4.7399   -4.0703    0.8575 H   0  0  0  0  0  0  0  0  0  0  0  0
    5.2418   -3.7920   -0.8563 H   0  0  0  0  0  0  0  0  0  0  0  0
  2  1  1  0  0  0  0
  2  9  1  0  0  0  0
  3  2  1  0  0  0  0
  6 15  1  0  0  0  0
  6  7  1  0  0  0  0
  8 31  1  0  0  0  0
  9  4  1  1  0  0  0
 10  9  1  0  0  0  0
 10 18  1  0  0  0  0
 11 13  1  0  0  0  0
 11 10  2  0  0  0  0
 12 11  1  0  0  0  0
 13 15  2  0  0  0  0
 14 13  1  0  0  0  0
 15 16  1  0  0  0  0
 16 17  1  0  0  0  0
 18 16  2  0  0  0  0
 18 19  1  0  0  0  0
 20 22  1  0  0  0  0
 20  1  1  0  0  0  0
 21 20  1  0  0  0  0
 22 23  1  0  0  0  0
 23  5  1  0  0  0  0
 24 23  2  0  0  0  0
 24  8  1  0  0  0  0
 25 26  1  0  0  0  0
 25 24  1  0  0  0  0
 27 25  2  0  0  0  0
 28 27  1  0  0  0  0
 29 27  1  0  0  0  0
 29 22  2  0  0  0  0
 30 29  1  0  0  0  0
 31 33  1  0  0  0  0
 32 31  1  0  0  0  0
 34 31  1  0  0  0  0
M  CHG  1   5  -1
M  END
