3,5,6
q = -2.0, confidence = 0.948

 29 30  0  0  0  0  0  0  0  0999 V2000
   -4.1539    1.9481   -0.8911 Br  0  0  0  0  0  0  0  0  0  0  0  0
   -6.0955   -2.4923    1.8653 Cl  0  0  0  0  0  0  0  0  0  0  0  0
    0.0006   -1.6745    0.0377 N   0  0  0  0  0  2  0  0  0  0  0  0
    1.1884   -2.2867    0.2753 N   0  0  0  0  0  0  0  0  0  0  0  0
   -1.5746    0.3698   -0.6072 O   0  5  0  0  0  0  0  0  0  0  0  0
    1.9071   -0.7209   -1.2301 O   0  5  0  0  0  0  0  0  0  0  0  0
    2.8748   -3.9481    1.2921 O   0  0  0  0  0  0  0  0  0  0  0  0
    1.9985   -3.4730    1.0945 H   0  0  0  0  0  0  0  0  0  0  0  0
   -2.3826   -1.5618    0.5573 C   0  0  0  0  0  0  0  0  0  0  0  0
   -2.5764   -0.2906   -0.0763 C   0  0  0  0  0  0  0  0  0  0  0  0
   -3.8882    0.2611   -0.0720 C   0  0  0  0  0  0  0  0  0  0  0  0
   -4.9622   -0.4113    0.5165 C   0  0  0  0  0  0  0  0  0  0  0  0
   -5.9669    0.0312    0.5000 H   0  0  0  0  0  0  0  0  0  0  0  0
   -4.7475   -1.6619    1.1329 C   0  0  0  0  0  0  0  0  0  0  0  0
   -3.4755   -2.2312    1.1630 C   0  0  0  0  0  0  0  0  0  0  0  0
   -3.3187   -3.2025    1.6528 H   0  0  0  0  0  0  0  0  0  0  0  0
   -1.0678   -2.1385    0.6445 C   0  0  0  0  0  3  0  0  0  0  0  0
   -0.9291   -3.0335    1.2783 H   0  0  0  0  0  0  0  0  0  0  0  0
    2.1649   -1.7257   -0.4435 C   0  0  0  0  0  0  0  0  0  0  0  0
    3.5231   -2.2504   -0.3261 C   0  0  0  0  0  0  0  0  0  0  0  0
    3.8104   -3.3495    0.5506 C   0  0  0  0  0  0  0  0  0  0  0  0
    5.1438   -3.8162    0.6334 C   0  0  0  0  0  0  0  0  0  0  0  0
    5.3492   -4.6591    1.3088 H   0  0  0  0  0  0  0  0  0  0  0  0
    6.1541   -3.2207   -0.1223 C   0  0  0  0  0  0  0  0  0  0  0  0
    7.1831   -3.6040   -0.0408 H   0  0  0  0  0  0  0  0  0  0  0  0
    5.8746   -2.1394   -0.9864 C   0  0  0  0  0  0  0  0  0  0  0  0
    6.6782   -1.6788   -1.5789 H   0  0  0  0  0  0  0  0  0  0  0  0
    4.5679   -1.6650   -1.0807 C   0  0  0  0  0  0  0  0  0  0  0  0
    4.3093   -0.8263   -1.7432 H   0  0  0  0  0  0  0  0  0  0  0  0
  1 11  1  0  0  0  0
  3  4  1  0  0  0  0
  3 17  1  0  0  0  0
  5 10  1  0  0  0  0
  6 19  1  0  0  0  0
  8  7  1  0  0  0  0
  9 17  1  0  0  0  0
  9 15  1  0  0  0  0
 10 11  1  0  0  0  0
 10  9  2  0  0  0  0
 11 12  2  0  0  0  0
 12 14  1  0  0  0  0
 13 12  1  0  0  0  0
 14 15  2  0  0  0  0
 14  2  1  0  0  0  0
 15 16  1  0  0  0  0
 17 18  1  0  0  0  0
 19 20  1  0  0  0  0
 19  4  2  0  0  0  0
 20 21  1  0  0  0  0
 21 22  2  0  0  0  0
 21  7  1  0  0  0  0
 22 23  1  0  0  0  0
 24 25  1  0  0  0  0
 24 22  1  0  0  0  0
 26 24  2  0  0  0  0
 27 26  1  0  0  0  0
 28 26  1  0  0  0  0
 28 20  2  0  0  0  0
 29 28  1  0  0  0  0
M  CHG  2   5  -1   6  -1
M  END
