1,3,4
q = -2.0, confidence = 0.936

 30 30  0  0  0  0  0  0  0  0999 V2000
   -1.3132    1.3497   -0.0950 N   0  0  0  0  0  2  0  0  0  0  0  0
   -0.5824    2.4795   -0.3471 N   0  0  0  0  0  0  0  0  0  0  0  0
   -1.7100   -1.2455    0.2829 O   0  5  0  0  0  0  0  0  0  0  0  0
    1.0144    1.1866    0.6565 O   0  5  0  0  0  0  0  0  0  0  0  0
   -3.4732    0.2423   -0.3482 C   0  0  0  0  0  0  0  0  0  0  0  0
   -2.9891   -1.0561    0.0183 C   0  0  0  0  0  0  0  0  0  0  0  0
   -3.8918   -2.1450    0.0552 C   0  0  0  0  0  0  0  0  0  0  0  0
   -3.4985   -3.1332    0.3323 H   0  0  0  0  0  0  0  0  0  0  0  0
   -5.2410   -1.9513   -0.2524 C   0  0  0  0  0  0  0  0  0  0  0  0
   -5.9304   -2.8088   -0.2117 H   0  0  0  0  0  0  0  0  0  0  0  0
   -5.7281   -0.6770   -0.6141 C   0  0  0  0  0  0  0  0  0  0  0  0
   -6.7916   -0.5371   -0.8550 H   0  0  0  0  0  0  0  0  0  0  0  0
   -4.8463    0.4015   -0.6666 C   0  0  0  0  0  0  0  0  0  0  0  0
   -5.2062    1.4022   -0.9537 H   0  0  0  0  0  0  0  0  0  0  0  0
   -2.5729    1.3569   -0.4600 C   0  0  0  0  0  3  0  0  0  0  0  0
   -2.9446    2.3003   -0.9011 H   0  0  0  0  0  0  0  0  0  0  0  0
    0.6474    2.3048    0.0853 C   0  0  0  0  0  0  0  0  0  0  0  0
    1.7051    3.3857   -0.0769 C   0  0  0  0  0  0  0  0  0  0  0  0
    2.8408    2.7921   -0.9413 C   0  0  0  0  0  0  0  0  0  0  0  0
    2.4675    2.5115   -1.9470 H   0  0  0  0  0  0  0  0  0  0  0  0
    3.2638    1.8858   -0.4657 H   0  0  0  0  0  0  0  0  0  0  0  0
    3.6518    3.5381   -1.0666 H   0  0  0  0  0  0  0  0  0  0  0  0
    2.2481    3.7377    1.3250 C   0  0  0  0  0  0  0  0  0  0  0  0
    3.0664    4.4813    1.2394 H   0  0  0  0  0  0  0  0  0  0  0  0
    2.6400    2.8354    1.8331 H   0  0  0  0  0  0  0  0  0  0  0  0
    1.4514    4.1727    1.9616 H   0  0  0  0  0  0  0  0  0  0  0  0
    1.1153    4.6311   -0.7533 C   0  0  0  0  0  0  0  0  0  0  0  0
    0.7107    4.3890   -1.7547 H   0  0  0  0  0  0  0  0  0  0  0  0
    1.9019    5.4050   -0.8658 H   0  0  0  0  0  0  0  0  0  0  0  0
    0.2857    5.0555   -0.1557 H   0  0  0  0  0  0  0  0  0  0  0  0
  2  1  1  0  0  0  0
  2 17  2  0  0  0  0
  5  6  1  0  0  0  0
  6  7  2  0  0  0  0
  6  3  1  0  0  0  0
  7  8  1  0  0  0  0
  9 10  1  0  0  0  0
  9  7  1  0  0  0  0
 11  9  2  0  0  0  0
 12 11  1  0  0  0  0
 13 11  1  0  0  0  0
 13  5  2  0  0  0  0
 14 13  1  0  0  0  0
 15  5  1  0  0  0  0
 15  1  1  0  0  0  0
 16 15  1  0  0  0  0
 17  4  1  0  0  0  0
 18 17  1  0  0  0  0
 18 23  1  0  0  0  0
 19 21  1  0  0  0  0
 19 18  1  0  0  0  0
 20 19  1  0  0  0  0
 22 19  1  0  0  0  0
 23 25  1  0  0  0  0
 23 26  1  0  0  0  0
 24 23  1  0  0  0  0
 27 30  1  0  0  0  0
 27 18  1  0  0  0  0
 28 27  1  0  0  0  0
 29 27  1  0  0  0  0
M  CHG  2   3  -1   4  -1
M  END
