1,3,4
q = -2.0, confidence = 0.872

 55 56  0  0  0  0  0  0  0  0999 V2000
   -0.7628    0.7534   -0.0711 N   0  0  0  0  0  2  0  0  0  0  0  0
   -1.9981    1.3362    0.0181 N   0  0  0  0  0  0  0  0  0  0  0  0
    1.0968   -1.2228    0.0322 O   0  5  0  0  0  0  0  0  0  0  0  0
   -2.6659   -0.8500   -0.3471 O   0  5  0  0  0  0  0  0  0  0  0  0
    1.6574    1.1101    0.0065 C   0  0  0  0  0  0  0  0  0  0  0  0
    2.0300   -0.2698    0.0071 C   0  0  0  0  0  0  0  0  0  0  0  0
    3.4089   -0.6388    0.0212 C   0  0  0  0  0  0  0  0  0  0  0  0
    4.3472    0.4039    0.0322 C   0  0  0  0  0  0  0  0  0  0  0  0
    5.4107    0.1324    0.0403 H   0  0  0  0  0  0  0  0  0  0  0  0
    4.0186    1.7829    0.0363 C   0  0  0  0  0  0  0  0  0  0  0  0
    2.6643    2.1112    0.0276 C   0  0  0  0  0  0  0  0  0  0  0  0
    2.3370    3.1603    0.0317 H   0  0  0  0  0  0  0  0  0  0  0  0
    0.2838    1.5412    0.0209 C   0  0  0  0  0  3  0  0  0  0  0  0
    0.0785    2.6246    0.1185 H   0  0  0  0  0  0  0  0  0  0  0  0
   -2.9422    0.4282   -0.1590 C   0  0  0  0  0  0  0  0  0  0  0  0
   -4.3618    0.8194   -0.1226 C   0  0  0  0  0  0  0  0  0  0  0  0
   -5.3663   -0.1560   -0.2904 C   0  0  0  0  0  0  0  0  0  0  0  0
   -5.0683   -1.2013   -0.4548 H   0  0  0  0  0  0  0  0  0  0  0  0
   -6.7168    0.2107   -0.2507 C   0  0  0  0  0  0  0  0  0  0  0  0
   -7.4922   -0.5599   -0.3842 H   0  0  0  0  0  0  0  0  0  0  0  0
   -7.1047    1.5501   -0.0448 C   0  0  0  0  0  0  0  0  0  0  0  0
   -6.0879    2.5189    0.1218 C   0  0  0  0  0  0  0  0  0  0  0  0
   -6.3685    3.5720    0.2829 H   0  0  0  0  0  0  0  0  0  0  0  0
   -4.7382    2.1665    0.0831 C   0  0  0  0  0  0  0  0  0  0  0  0
   -3.9487    2.9207    0.2098 H   0  0  0  0  0  0  0  0  0  0  0  0
   -8.5563    1.9512   -0.0115 C   0  0  0  0  0  0  0  0  0  0  0  0
   -9.2270    1.0732   -0.0770 H   0  0  0  0  0  0  0  0  0  0  0  0
   -8.8020    2.6292   -0.8562 H   0  0  0  0  0  0  0  0  0  0  0  0
   -8.8009    2.5027    0.9199 H   0  0  0  0  0  0  0  0  0  0  0  0
    3.8367   -2.1187    0.0144 C   0  0  0  0  0  0  0  0  0  0  0  0
    3.3348   -2.7959   -1.2836 C   0  0  0  0  0  0  0  0  0  0  0  0
    2.2336   -2.7655   -1.3701 H   0  0  0  0  0  0  0  0  0  0  0  0
    3.6488   -3.8599   -1.2994 H   0  0  0  0  0  0  0  0  0  0  0  0
    3.7654   -2.2990   -2.1765 H   0  0  0  0  0  0  0  0  0  0  0  0
    3.2585   -2.8419    1.2546 C   0  0  0  0  0  0  0  0  0  0  0  0
    3.6244   -2.3696    2.1892 H   0  0  0  0  0  0  0  0  0  0  0  0
    3.5862   -3.9018    1.2570 H   0  0  0  0  0  0  0  0  0  0  0  0
    2.1535   -2.8233    1.2637 H   0  0  0  0  0  0  0  0  0  0  0  0
    5.3690   -2.2670    0.0579 C   0  0  0  0  0  0  0  0  0  0  0  0
    5.8599   -1.8056   -0.8231 H   0  0  0  0  0  0  0  0  0  0  0  0
    5.6311   -3.3437    0.0548 H   0  0  0  0  0  0  0  0  0  0  0  0
    5.8065   -1.8217    0.9747 H   0  0  0  0  0  0  0  0  0  0  0  0
    5.1424    2.8324    0.0487 C   0  0  0  0  0  0  0  0  0  0  0  0
    4.5884    4.2672    0.0572 C   0  0  0  0  0  0  0  0  0  0  0  0
    5.4253    4.9938    0.0664 H   0  0  0  0  0  0  0  0  0  0  0  0
    3.9671    4.4639    0.9544 H   0  0  0  0  0  0  0  0  0  0  0  0
    3.9751    4.4776   -0.8423 H   0  0  0  0  0  0  0  0  0  0  0  0
    6.0183    2.6535   -1.2123 C   0  0  0  0  0  0  0  0  0  0  0  0
    6.8420    3.3970   -1.2210 H   0  0  0  0  0  0  0  0  0  0  0  0
    5.4182    2.7917   -2.1342 H   0  0  0  0  0  0  0  0  0  0  0  0
    6.4764    1.6453   -1.2564 H   0  0  0  0  0  0  0  0  0  0  0  0
    6.0098    2.6355    1.3128 C   0  0  0  0  0  0  0  0  0  0  0  0
    6.4678    1.6269    1.3461 H   0  0  0  0  0  0  0  0  0  0  0  0
    5.4037    2.7613    2.2327 H   0  0  0  0  0  0  0  0  0  0  0  0
    6.8335    3.3786    1.3373 H   0  0  0  0  0  0  0  0  0  0  0  0
  1  2  1  0  0  0  0
  1 13  1  0  0  0  0
  4 15  1  0  0  0  0
  5  6  2  0  0  0  0
  5 13  1  0  0  0  0
  5 11  1  0  0  0  0
  6  7  1  0  0  0  0
  6  3  1  0  0  0  0
  7  8  2  0  0  0  0
  8 10  1  0  0  0  0
  8  9  1  0  0  0  0
 10 43  1  0  0  0  0
 11 12  1  0  0  0  0
 11 10  2  0  0  0  0
 13 14  1  0  0  0  0
 15 16  1  0  0  0  0
 15  2  2  0  0  0  0
 16 24  1  0  0  0  0
 17 19  1  0  0  0  0
 17 16  2  0  0  0  0
 18 17  1  0  0  0  0
 19 21  2  0  0  0  0
 20 19  1  0  0  0  0
 21 26  1  0  0  0  0
 21 22  1  0  0  0  0
 22 23  1  0  0  0  0
 24 22  2  0  0  0  0
 24 25  1  0  0  0  0
 26 29  1  0  0  0  0
 27 26  1  0  0  0  0
 28 26  1  0  0  0  0
 30  7  1  0  0  0  0
 30 39  1  0  0  0  0
 30 35  1  0  0  0  0
 31 30  1  0  0  0  0
 32 31  1  0  0  0  0
 33 31  1  0  0  0  0
 34 31  1  0  0  0  0
 35 37  1  0  0  0  0
 35 38  1  0  0  0  0
 35 36  1  0  0  0  0
 39 42  1  0  0  0  0
 40 39  1  0  0  0  0
 41 39  1  0  0  0  0
 43 44  1  0  0  0  0
 43 52  1  0  0  0  0
 44 45  1  0  0  0  0
 44 46  1  0  0  0  0
 47 44  1  0  0  0  0
 48 43  1  0  0  0  0
 49 48  1  0  0  0  0
 50 48  1  0  0  0  0
 51 48  1  0  0  0  0
 52 55  1  0  0  0  0
 52 53  1  0  0  0  0
 52 54  1  0  0  0  0
M  CHG  2   3  -1   4  -1
M  END
