3,6,7
q = -2.0, confidence = 0.92

 27 28  0  0  0  0  0  0  0  0999 V2000
    3.9484    2.4189   -1.2199 Cl  0  0  0  0  0  0  0  0  0  0  0  0
    6.6877   -1.2358    1.7329 Cl  0  0  0  0  0  0  0  0  0  0  0  0
    0.4791   -1.5892    0.1442 N   0  0  0  0  0  2  0  0  0  0  0  0
   -0.5684   -2.3809    0.5012 N   0  0  0  0  0  0  0  0  0  0  0  0
   -5.2468   -2.9954   -0.5906 N   0  0  0  0  0  0  0  0  0  0  0  0
    1.6742    0.6200   -0.7499 O   0  5  0  0  0  0  0  0  0  0  0  0
   -1.5989   -1.0687   -1.0762 O   0  5  0  0  0  0  0  0  0  0  0  0
    2.8280   -1.0431    0.5352 C   0  0  0  0  0  0  0  0  0  0  0  0
    2.7860    0.1776   -0.2143 C   0  0  0  0  0  0  0  0  0  0  0  0
    3.9898    0.9318   -0.3250 C   0  0  0  0  0  0  0  0  0  0  0  0
    5.1790    0.4983    0.2663 C   0  0  0  0  0  0  0  0  0  0  0  0
    6.0923    1.0977    0.1580 H   0  0  0  0  0  0  0  0  0  0  0  0
    5.1955   -0.7069    0.9991 C   0  0  0  0  0  0  0  0  0  0  0  0
    4.0376   -1.4684    1.1418 C   0  0  0  0  0  0  0  0  0  0  0  0
    4.0597   -2.4025    1.7205 H   0  0  0  0  0  0  0  0  0  0  0  0
    1.6316   -1.8145    0.7339 C   0  0  0  0  0  3  0  0  0  0  0  0
    1.6574   -2.6619    1.4430 H   0  0  0  0  0  0  0  0  0  0  0  0
   -1.6343   -2.0404   -0.2036 C   0  0  0  0  0  0  0  0  0  0  0  0
   -2.9046   -2.7624   -0.0003 C   0  0  0  0  0  0  0  0  0  0  0  0
   -3.0112   -3.8269    0.9182 C   0  0  0  0  0  0  0  0  0  0  0  0
   -2.1243   -4.1296    1.4935 H   0  0  0  0  0  0  0  0  0  0  0  0
   -4.2480   -4.4606    1.0632 C   0  0  0  0  0  0  0  0  0  0  0  0
   -4.3786   -5.2966    1.7665 H   0  0  0  0  0  0  0  0  0  0  0  0
   -5.3315   -4.0078    0.2877 C   0  0  0  0  0  0  0  0  0  0  0  0
   -6.3206   -4.4913    0.3835 H   0  0  0  0  0  0  0  0  0  0  0  0
   -4.0582   -2.3922   -0.7271 C   0  0  0  0  0  0  0  0  0  0  0  0
   -3.9892   -1.5618   -1.4503 H   0  0  0  0  0  0  0  0  0  0  0  0
  1 10  1  0  0  0  0
  3  4  1  0  0  0  0
  3 16  1  0  0  0  0
  5 24  1  0  0  0  0
  6  9  1  0  0  0  0
  7 18  1  0  0  0  0
  8 16  1  0  0  0  0
  8 14  1  0  0  0  0
  9  8  2  0  0  0  0
 10  9  1  0  0  0  0
 10 11  2  0  0  0  0
 11 13  1  0  0  0  0
 12 11  1  0  0  0  0
 13 14  2  0  0  0  0
 13  2  1  0  0  0  0
 14 15  1  0  0  0  0
 16 17  1  0  0  0  0
 18 19  1  0  0  0  0
 18  4  2  0  0  0  0
 19 20  2  0  0  0  0
 20 22  1  0  0  0  0
 20 21  1  0  0  0  0
 22 23  1  0  0  0  0
 24 25  1  0  0  0  0
 24 22  2  0  0  0  0
 26  5  2  0  0  0  0
 26 19  1  0  0  0  0
 27 26  1  0  0  0  0
M  CHG  2   6  -1   7  -1
M  END
