1,4,5
q = -2.0, confidence = 0.71

 34 35  0  0  0  0  0  0  0  0999 V2000
    1.0966   -1.5131   -0.3819 N   0  0  0  0  0  2  0  0  0  0  0  0
   -0.0552   -2.0779   -0.8459 N   0  0  0  0  0  0  0  0  0  0  0  0
   -5.9601   -1.3931    0.7255 N   0  0  0  0  0  0  0  0  0  0  0  0
    2.6021    0.3701    0.7577 O   0  5  0  0  0  0  0  0  0  0  0  0
   -0.9071   -0.7916    0.8544 O   0  5  0  0  0  0  0  0  0  0  0  0
    7.2528    0.3828    0.0908 O   0  0  0  0  0  0  0  0  0  0  0  0
   -5.7019   -0.5494    1.5830 O   0  0  0  0  0  0  0  0  0  0  0  0
   -7.0885   -1.7953    0.4426 O   0  0  0  0  0  0  0  0  0  0  0  0
    3.5093   -1.3212   -0.6761 C   0  0  0  0  0  0  0  0  0  0  0  0
    3.6588   -0.1873    0.1999 C   0  0  0  0  0  0  0  0  0  0  0  0
    4.9382    0.3521    0.4203 C   0  0  0  0  0  0  0  0  0  0  0  0
    5.0548    1.2199    1.0823 H   0  0  0  0  0  0  0  0  0  0  0  0
    6.0693   -0.2101   -0.1991 C   0  0  0  0  0  0  0  0  0  0  0  0
    5.9355   -1.3256   -1.0686 C   0  0  0  0  0  0  0  0  0  0  0  0
    6.8084   -1.7717   -1.5607 H   0  0  0  0  0  0  0  0  0  0  0  0
    4.6676   -1.8523   -1.2967 C   0  0  0  0  0  0  0  0  0  0  0  0
    4.5526   -2.7134   -1.9734 H   0  0  0  0  0  0  0  0  0  0  0  0
    2.2204   -1.8621   -0.9731 C   0  0  0  0  0  3  0  0  0  0  0  0
    2.1317   -2.6269   -1.7667 H   0  0  0  0  0  0  0  0  0  0  0  0
   -1.0708   -1.6374   -0.1291 C   0  0  0  0  0  0  0  0  0  0  0  0
   -2.4436   -2.0877   -0.4432 C   0  0  0  0  0  0  0  0  0  0  0  0
   -3.5237   -1.5504    0.2815 C   0  0  0  0  0  0  0  0  0  0  0  0
   -3.3549   -0.8132    1.0762 H   0  0  0  0  0  0  0  0  0  0  0  0
   -4.8191   -1.9706   -0.0320 C   0  0  0  0  0  0  0  0  0  0  0  0
   -5.0811   -2.9112   -1.0370 C   0  0  0  0  0  0  0  0  0  0  0  0
   -6.1207   -3.2035   -1.2352 H   0  0  0  0  0  0  0  0  0  0  0  0
   -3.9970   -3.4416   -1.7529 C   0  0  0  0  0  0  0  0  0  0  0  0
   -4.1784   -4.1812   -2.5467 H   0  0  0  0  0  0  0  0  0  0  0  0
   -2.6881   -3.0345   -1.4632 C   0  0  0  0  0  0  0  0  0  0  0  0
   -1.8280   -3.4370   -2.0167 H   0  0  0  0  0  0  0  0  0  0  0  0
    8.4392   -0.1319   -0.4895 C   0  0  0  0  0  0  0  0  0  0  0  0
    8.6207   -1.1882   -0.1913 H   0  0  0  0  0  0  0  0  0  0  0  0
    9.2668    0.4957   -0.1112 H   0  0  0  0  0  0  0  0  0  0  0  0
    8.4171   -0.0702   -1.6000 H   0  0  0  0  0  0  0  0  0  0  0  0
  2  1  1  0  0  0  0
  2 20  2  0  0  0  0
  3  7  2  0  0  0  0
  8  3  2  0  0  0  0
  9 10  1  0  0  0  0
 10 11  2  0  0  0  0
 10  4  1  0  0  0  0
 11 12  1  0  0  0  0
 13  6  1  0  0  0  0
 13 11  1  0  0  0  0
 14 13  2  0  0  0  0
 15 14  1  0  0  0  0
 16 14  1  0  0  0  0
 16  9  2  0  0  0  0
 17 16  1  0  0  0  0
 18  9  1  0  0  0  0
 18  1  1  0  0  0  0
 19 18  1  0  0  0  0
 20  5  1  0  0  0  0
 21 20  1  0  0  0  0
 21 22  1  0  0  0  0
 22 23  1  0  0  0  0
 24 22  2  0  0  0  0
 24  3  1  0  0  0  0
 25 24  1  0  0  0  0
 26 25  1  0  0  0  0
 27 29  1  0  0  0  0
 27 25  2  0  0  0  0
 28 27  1  0  0  0  0
 29 21  2  0  0  0  0
 30 29  1  0  0  0  0
 31 32  1  0  0  0  0
 31 33  1  0  0  0  0
 31  6  1  0  0  0  0
 34 31  1  0  0  0  0
M  CHG  2   4  -1   5  -1
M  END
