1,2,4
q = -2.0, confidence = 0.902

 21 20  0  0  0  0  0  0  0  0999 V2000
    0.0641   -0.9970   -0.5336 N   0  0  0  0  0  0  0  0  0  0  0  0
   -1.6768    0.8940    0.0088 O   0  5  0  0  0  0  0  0  0  0  0  0
   -3.3186   -0.0389   -1.2389 O   0  0  0  0  0  0  0  0  0  0  0  0
    1.9979    0.3406    0.6005 O   0  5  0  0  0  0  0  0  0  0  0  0
    3.6162   -1.0338   -0.1823 O   0  0  0  0  0  0  0  0  0  0  0  0
   -1.2737   -0.5719    2.2403 O   0  0  0  0  0  0  0  0  0  0  0  0
   -1.0614   -0.8852   -1.4632 C   0  0  0  0  0  0  0  0  0  0  0  0
   -1.5102   -1.8664   -1.7431 H   0  0  0  0  0  0  0  0  0  0  0  0
   -0.6944   -0.3936   -2.3875 H   0  0  0  0  0  0  0  0  0  0  0  0
   -2.1510    0.0425   -0.8776 C   0  0  0  0  0  0  0  0  0  0  0  0
    1.3930   -1.1825   -1.1299 C   0  0  0  0  0  0  0  0  0  0  0  0
    1.4432   -0.5785   -2.0591 H   0  0  0  0  0  0  0  0  0  0  0  0
    1.6226   -2.2452   -1.3753 H   0  0  0  0  0  0  0  0  0  0  0  0
    2.4648   -0.6130   -0.1688 C   0  0  0  0  0  0  0  0  0  0  0  0
   -0.1489   -1.9754    0.5488 C   0  0  0  0  0  0  0  0  0  0  0  0
    0.7590   -1.9568    1.1852 H   0  0  0  0  0  0  0  0  0  0  0  0
   -0.2331   -3.0018    0.1066 H   0  0  0  0  0  0  0  0  0  0  0  0
   -1.3616   -1.7334    1.4556 C   0  0  0  0  0  0  0  0  0  0  0  0
   -2.3043   -1.7718    0.8575 H   0  0  0  0  0  0  0  0  0  0  0  0
   -1.4041   -2.6077    2.1447 H   0  0  0  0  0  0  0  0  0  0  0  0
   -1.5832    0.1701    1.6637 H   0  0  0  0  0  0  0  0  0  0  0  0
  1 15  1  0  0  0  0
  3 10  2  0  0  0  0
  5 14  2  0  0  0  0
  7 10  1  0  0  0  0
  7  1  1  0  0  0  0
  8  7  1  0  0  0  0
  9  7  1  0  0  0  0
 10  2  1  0  0  0  0
 11  1  1  0  0  0  0
 11 14  1  0  0  0  0
 12 11  1  0  0  0  0
 13 11  1  0  0  0  0
 14  4  1  0  0  0  0
 15 16  1  0  0  0  0
 15 18  1  0  0  0  0
 17 15  1  0  0  0  0
 18 20  1  0  0  0  0
 18  6  1  0  0  0  0
 19 18  1  0  0  0  0
 21  6  1  0  0  0  0
M  CHG  2   2  -1   4  -1
M  END
