1,2,3
q = -2.0, confidence = 0.664

 32 33  0  0  1  0  0  0  0  0999 V2000
   -2.3782    1.1019    0.1438 O   0  5  0  0  0  0  0  0  0  0  0  0
    1.1761    0.2334   -0.0898 O   0  0  0  0  0  1  0  0  0  0  0  0
   -1.2282   -1.1902    0.0513 N   0  0  0  0  0  2  0  0  0  0  0  0
   -2.6389   -1.2287   -0.0617 C   0  0  0  0  0  0  0  0  0  0  0  0
    3.9447   -2.0857   -0.4343 C   0  0  0  0  0  0  0  0  0  0  0  0
    3.4095   -2.9870   -0.7676 H   0  0  0  0  0  0  0  0  0  0  0  0
   -3.2110    0.0782    0.0542 C   0  0  0  0  0  0  0  0  0  0  0  0
    3.9223    0.2090    0.3608 C   0  0  0  0  0  0  0  0  0  0  0  0
    3.3520    1.0871    0.6957 H   0  0  0  0  0  0  0  0  0  0  0  0
   -0.9472   -3.6205    0.5750 C   0  0  0  0  0  0  0  0  0  0  0  0
   -1.8240   -3.5700    1.2490 H   0  0  0  0  0  0  0  0  0  0  0  0
   -0.1553   -4.2174    1.0635 H   0  0  0  0  0  0  0  0  0  0  0  0
   -1.2596   -4.1706   -0.3371 H   0  0  0  0  0  0  0  0  0  0  0  0
    1.7218   -0.9413    0.0192 C   0  0  1  0  0  3  0  0  0  0  0  0
   -4.6147    0.2429    0.0404 C   0  0  0  0  0  0  0  0  0  0  0  0
   -5.0240    1.2570    0.1603 H   0  0  0  0  0  0  0  0  0  0  0  0
    3.2103   -0.9516   -0.0198 C   0  0  0  0  0  0  0  0  0  0  0  0
   -0.4153   -2.2411    0.2544 C   0  0  0  0  0  0  0  0  0  0  0  0
   -4.8838   -2.1418   -0.3677 C   0  0  0  0  0  0  0  0  0  0  0  0
   -5.5338   -3.0055   -0.5712 H   0  0  0  0  0  0  0  0  0  0  0  0
    0.9986   -2.1233    0.2171 C   0  0  0  0  0  0  0  0  0  0  0  0
    1.5702   -3.0407    0.4028 H   0  0  0  0  0  0  0  0  0  0  0  0
   -5.4424   -0.8654   -0.1677 C   0  0  0  0  0  0  0  0  0  0  0  0
   -6.5349   -0.7317   -0.1983 H   0  0  0  0  0  0  0  0  0  0  0  0
   -3.4941   -2.3259   -0.3189 C   0  0  0  0  0  0  0  0  0  0  0  0
   -3.0937   -3.3249   -0.5148 H   0  0  0  0  0  0  0  0  0  0  0  0
    5.3223    0.2312    0.3381 C   0  0  0  0  0  0  0  0  0  0  0  0
    5.8596    1.1405    0.6489 H   0  0  0  0  0  0  0  0  0  0  0  0
    6.0412   -0.9035   -0.0728 C   0  0  0  0  0  0  0  0  0  0  0  0
    7.1415   -0.8859   -0.0940 H   0  0  0  0  0  0  0  0  0  0  0  0
    5.3452   -2.0606   -0.4601 C   0  0  0  0  0  0  0  0  0  0  0  0
    5.8994   -2.9507   -0.7954 H   0  0  0  0  0  0  0  0  0  0  0  0
  3 18  1  0  0  0  0
  4  3  1  0  0  0  0
  4  7  1  0  0  0  0
  5 17  1  0  0  0  0
  6  5  1  0  0  0  0
  7  1  1  0  0  0  0
  8  9  1  0  0  0  0
 10 12  1  0  0  0  0
 10 11  1  0  0  0  0
 13 10  1  0  0  0  0
 14  2  1  1  0  0  0
 14 21  1  0  0  0  0
 15  7  2  0  0  0  0
 15 16  1  0  0  0  0
 17 14  1  0  0  0  0
 17  8  2  0  0  0  0
 18 10  1  0  0  0  0
 19 25  1  0  0  0  0
 19 23  2  0  0  0  0
 20 19  1  0  0  0  0
 21 18  2  0  0  0  0
 21 22  1  0  0  0  0
 23 15  1  0  0  0  0
 24 23  1  0  0  0  0
 25  4  2  0  0  0  0
 26 25  1  0  0  0  0
 27  8  1  0  0  0  0
 27 28  1  0  0  0  0
 29 27  2  0  0  0  0
 30 29  1  0  0  0  0
 31  5  2  0  0  0  0
 31 29  1  0  0  0  0
 32 31  1  0  0  0  0
M  CHG  1   1  -1
M  END
