1,2,3
q = -2.0, confidence = 0.912

 35 36  0  0  1  0  0  0  0  0999 V2000
    0.2188    1.3992   -1.3512 O   0  0  0  0  0  1  0  0  0  0  0  0
    0.9288   -1.1820   -1.2491 O   0  0  0  0  0  1  0  0  0  0  0  0
    1.6691    0.9363    0.7344 N   0  0  0  0  0  2  0  0  0  0  0  0
    4.4452   -0.4296   -0.8108 N   0  0  0  0  0  0  0  0  0  0  0  0
    2.1202    0.8180    2.0001 C   0  0  0  0  0  3  0  0  0  0  0  0
    1.5884    0.0923    2.6326 H   0  0  0  0  0  0  0  0  0  0  0  0
    3.2071    1.5748    2.4404 C   0  0  0  0  0  0  0  0  0  0  0  0
    3.5693    1.4580    3.4709 H   0  0  0  0  0  0  0  0  0  0  0  0
    3.8112    2.4755    1.5490 C   0  0  0  0  0  0  0  0  0  0  0  0
    4.6654    3.0883    1.8730 H   0  0  0  0  0  0  0  0  0  0  0  0
    3.3223    2.5872    0.2402 C   0  0  0  0  0  0  0  0  0  0  0  0
    3.7820    3.2767   -0.4797 H   0  0  0  0  0  0  0  0  0  0  0  0
    2.2407    1.7922   -0.1512 C   0  0  0  0  0  0  0  0  0  0  0  0
    1.6900    3.0348   -2.3039 C   0  0  0  0  0  0  0  0  0  0  0  0
    1.2464    3.8591   -1.7130 H   0  0  0  0  0  0  0  0  0  0  0  0
    2.7357    3.2925   -2.5606 H   0  0  0  0  0  0  0  0  0  0  0  0
    1.1211    2.9343   -3.2474 H   0  0  0  0  0  0  0  0  0  0  0  0
    1.6066    1.7200   -1.5334 C   0  0  2  0  0  0  0  0  0  0  0  0
    2.2617    0.5652   -2.3449 C   0  0  0  0  0  0  0  0  0  0  0  0
    1.7624    0.5575   -3.3334 H   0  0  0  0  0  0  0  0  0  0  0  0
    3.3387    0.7987   -2.4821 H   0  0  0  0  0  0  0  0  0  0  0  0
    2.2167   -0.8685   -1.7556 C   0  0  2  0  0  0  0  0  0  0  0  0
    2.4967   -1.8804   -2.8833 C   0  0  0  0  0  0  0  0  0  0  0  0
    1.7286   -1.7845   -3.6754 H   0  0  0  0  0  0  0  0  0  0  0  0
    3.4982   -1.7037   -3.3207 H   0  0  0  0  0  0  0  0  0  0  0  0
    2.4635   -2.9097   -2.4780 H   0  0  0  0  0  0  0  0  0  0  0  0
    5.4440   -0.6610    0.0568 C   0  0  0  0  0  0  0  0  0  0  0  0
    6.3745   -0.0878   -0.0976 H   0  0  0  0  0  0  0  0  0  0  0  0
    5.3332   -1.5776    1.1130 C   0  0  0  0  0  0  0  0  0  0  0  0
    6.1771   -1.7402    1.7992 H   0  0  0  0  0  0  0  0  0  0  0  0
    4.1229   -2.2735    1.2624 C   0  0  0  0  0  0  0  0  0  0  0  0
    3.9932   -3.0012    2.0781 H   0  0  0  0  0  0  0  0  0  0  0  0
    3.0817   -2.0332    0.3578 C   0  0  0  0  0  0  0  0  0  0  0  0
    2.1098   -2.5418    0.4416 H   0  0  0  0  0  0  0  0  0  0  0  0
    3.2953   -1.0957   -0.6724 C   0  0  0  0  0  0  0  0  0  0  0  0
  3  5  1  0  0  0  0
  4 35  2  0  0  0  0
  4 27  1  0  0  0  0
  5  7  1  0  0  0  0
  5  6  1  0  0  0  0
  7  8  1  0  0  0  0
  9 10  1  0  0  0  0
  9  7  2  0  0  0  0
 11  9  1  0  0  0  0
 12 11  1  0  0  0  0
 13 11  2  0  0  0  0
 13  3  1  0  0  0  0
 14 15  1  0  0  0  0
 14 18  1  0  0  0  0
 16 14  1  0  0  0  0
 17 14  1  0  0  0  0
 18  1  1  1  0  0  0
 18 13  1  0  0  0  0
 19 22  1  0  0  0  0
 19 18  1  0  0  0  0
 20 19  1  0  0  0  0
 21 19  1  0  0  0  0
 22  2  1  1  0  0  0
 22 35  1  0  0  0  0
 23 26  1  0  0  0  0
 23 22  1  0  0  0  0
 24 23  1  0  0  0  0
 25 23  1  0  0  0  0
 27 29  2  0  0  0  0
 28 27  1  0  0  0  0
 29 31  1  0  0  0  0
 29 30  1  0  0  0  0
 31 32  1  0  0  0  0
 33 34  1  0  0  0  0
 33 31  2  0  0  0  0
 35 33  1  0  0  0  0
M  END
