2,3,5
q = -2.0, confidence = 0.936

 35 36  0  0  0  0  0  0  0  0999 V2000
   -5.8417   -2.0792   -0.1646 Br  0  0  0  0  0  0  0  0  0  0  0  0
   -0.8834    1.3592    0.2926 O   0  5  0  0  0  0  0  0  0  0  0  0
    2.6334    0.4933   -0.2562 O   0  5  0  0  0  0  0  0  0  0  0  0
   -3.2488    2.5313    0.2824 O   0  0  0  0  0  0  0  0  0  0  0  0
    0.5930   -0.8584   -0.0032 N   0  0  0  0  0  2  0  0  0  0  0  0
    1.7300   -1.5901    0.0820 N   0  0  0  0  0  0  0  0  0  0  0  0
   -1.8399   -0.8391    0.0433 C   0  0  0  0  0  0  0  0  0  0  0  0
   -1.9446    0.5775    0.1525 C   0  0  0  0  0  0  0  0  0  0  0  0
   -3.2436    1.1799    0.1654 C   0  0  0  0  0  0  0  0  0  0  0  0
   -4.3917    0.3801    0.0679 C   0  0  0  0  0  0  0  0  0  0  0  0
   -5.3929    0.8279    0.0699 H   0  0  0  0  0  0  0  0  0  0  0  0
   -4.2609   -1.0219   -0.0347 C   0  0  0  0  0  0  0  0  0  0  0  0
   -3.0150   -1.6364   -0.0405 C   0  0  0  0  0  0  0  0  0  0  0  0
   -2.9261   -2.7287   -0.1182 H   0  0  0  0  0  0  0  0  0  0  0  0
   -0.5527   -1.4900    0.0745 C   0  0  0  0  0  3  0  0  0  0  0  0
   -0.5147   -2.5916    0.1651 H   0  0  0  0  0  0  0  0  0  0  0  0
    2.7809   -0.7960   -0.0800 C   0  0  0  0  0  0  0  0  0  0  0  0
    4.1431   -1.3757   -0.0420 C   0  0  0  0  0  0  0  0  0  0  0  0
    5.3168   -0.6146   -0.3235 C   0  0  0  0  0  0  0  0  0  0  0  0
    6.5586   -1.2795   -0.2458 C   0  0  0  0  0  0  0  0  0  0  0  0
    7.4724   -0.7046   -0.4638 H   0  0  0  0  0  0  0  0  0  0  0  0
    6.6629   -2.6346    0.0927 C   0  0  0  0  0  0  0  0  0  0  0  0
    7.6534   -3.1124    0.1423 H   0  0  0  0  0  0  0  0  0  0  0  0
    5.5016   -3.3756    0.3634 C   0  0  0  0  0  0  0  0  0  0  0  0
    5.5666   -4.4416    0.6283 H   0  0  0  0  0  0  0  0  0  0  0  0
    4.2574   -2.7465    0.2930 C   0  0  0  0  0  0  0  0  0  0  0  0
    3.3291   -3.2977    0.4976 H   0  0  0  0  0  0  0  0  0  0  0  0
    5.3060    0.8442   -0.7089 C   0  0  0  0  0  0  0  0  0  0  0  0
    6.3349    1.1899   -0.9282 H   0  0  0  0  0  0  0  0  0  0  0  0
    4.8804    1.4786    0.0936 H   0  0  0  0  0  0  0  0  0  0  0  0
    4.6695    1.0279   -1.5965 H   0  0  0  0  0  0  0  0  0  0  0  0
   -4.4984    3.1943    0.2875 C   0  0  0  0  0  0  0  0  0  0  0  0
   -5.1333    2.8761    1.1452 H   0  0  0  0  0  0  0  0  0  0  0  0
   -5.0625    3.0206   -0.6565 H   0  0  0  0  0  0  0  0  0  0  0  0
   -4.2791    4.2737    0.3821 H   0  0  0  0  0  0  0  0  0  0  0  0
  1 12  1  0  0  0  0
  3 17  1  0  0  0  0
  4 32  1  0  0  0  0
  5 15  1  0  0  0  0
  5  6  1  0  0  0  0
  7 15  1  0  0  0  0
  7  8  1  0  0  0  0
  8  9  2  0  0  0  0
  8  2  1  0  0  0  0
  9  4  1  0  0  0  0
 10 11  1  0  0  0  0
 10  9  1  0  0  0  0
 12 10  2  0  0  0  0
 13 12  1  0  0  0  0
 13  7  2  0  0  0  0
 14 13  1  0  0  0  0
 15 16  1  0  0  0  0
 17 18  1  0  0  0  0
 17  6  2  0  0  0  0
 18 26  1  0  0  0  0
 19 20  1  0  0  0  0
 19 18  2  0  0  0  0
 20 22  2  0  0  0  0
 21 20  1  0  0  0  0
 22 23  1  0  0  0  0
 22 24  1  0  0  0  0
 24 25  1  0  0  0  0
 26 24  2  0  0  0  0
 26 27  1  0  0  0  0
 28 19  1  0  0  0  0
 28 30  1  0  0  0  0
 29 28  1  0  0  0  0
 31 28  1  0  0  0  0
 32 35  1  0  0  0  0
 32 33  1  0  0  0  0
 34 32  1  0  0  0  0
M  CHG  2   2  -1   3  -1
M  END
