1,2,3
q = -2.0, confidence = 0.94

 68 70  0  0  1  0  0  0  0  0999 V2000
   -0.8914   -0.4180   -0.6485 N   0  0  0  0  0  2  0  0  0  0  0  0
   -2.7604    1.1977   -0.7162 O   0  0  0  0  0  1  0  0  0  0  0  0
    0.7641    1.5446   -0.1544 O   0  5  0  0  0  0  0  0  0  0  0  0
   -3.1469   -0.0253   -1.2702 C   0  0  1  0  0  0  0  0  0  0  0  0
   -2.9778   -0.0126   -2.3765 H   0  0  0  0  0  0  0  0  0  0  0  0
   -2.1847   -1.0917   -0.6801 C   0  0  2  0  0  0  0  0  0  0  0  0
   -2.1401   -1.9886   -1.3386 H   0  0  0  0  0  0  0  0  0  0  0  0
   -2.5728   -1.5537    0.7525 C   0  0  0  0  0  0  0  0  0  0  0  0
   -2.7309   -0.6545    1.3798 H   0  0  0  0  0  0  0  0  0  0  0  0
   -3.5403   -2.0888    0.6769 H   0  0  0  0  0  0  0  0  0  0  0  0
   -4.6106   -0.3359   -1.0194 C   0  0  0  0  0  0  0  0  0  0  0  0
   -5.3248    0.3491   -0.0208 C   0  0  0  0  0  0  0  0  0  0  0  0
   -4.8109    1.1465    0.5353 H   0  0  0  0  0  0  0  0  0  0  0  0
   -6.6632    0.0196    0.2428 C   0  0  0  0  0  0  0  0  0  0  0  0
   -7.2155    0.5631    1.0247 H   0  0  0  0  0  0  0  0  0  0  0  0
   -7.2987   -0.9975   -0.4869 C   0  0  0  0  0  0  0  0  0  0  0  0
   -8.3485   -1.2549   -0.2793 H   0  0  0  0  0  0  0  0  0  0  0  0
   -6.5913   -1.6800   -1.4905 C   0  0  0  0  0  0  0  0  0  0  0  0
   -7.0865   -2.4714   -2.0739 H   0  0  0  0  0  0  0  0  0  0  0  0
   -5.2556   -1.3464   -1.7582 C   0  0  0  0  0  0  0  0  0  0  0  0
   -4.7070   -1.8744   -2.5557 H   0  0  0  0  0  0  0  0  0  0  0  0
   -1.5080   -2.4406    1.3454 C   0  0  0  0  0  0  0  0  0  0  0  0
   -1.4672   -3.8179    1.0443 C   0  0  0  0  0  0  0  0  0  0  0  0
   -2.2780   -4.2634    0.4447 H   0  0  0  0  0  0  0  0  0  0  0  0
   -0.4092   -4.6225    1.4939 C   0  0  0  0  0  0  0  0  0  0  0  0
   -0.3957   -5.6964    1.2514 H   0  0  0  0  0  0  0  0  0  0  0  0
    0.6295   -4.0593    2.2537 C   0  0  0  0  0  0  0  0  0  0  0  0
    1.4622   -4.6883    2.6041 H   0  0  0  0  0  0  0  0  0  0  0  0
    0.5955   -2.6915    2.5685 C   0  0  0  0  0  0  0  0  0  0  0  0
    1.4048   -2.2413    3.1633 H   0  0  0  0  0  0  0  0  0  0  0  0
   -0.4642   -1.8894    2.1191 C   0  0  0  0  0  0  0  0  0  0  0  0
   -0.4826   -0.8128    2.3506 H   0  0  0  0  0  0  0  0  0  0  0  0
    0.1935   -1.1164   -0.8491 C   0  0  0  0  0  3  0  0  0  0  0  0
    0.0814   -2.1844   -1.1293 H   0  0  0  0  0  0  0  0  0  0  0  0
    1.5371   -0.6351   -0.7127 C   0  0  0  0  0  0  0  0  0  0  0  0
    2.6194   -1.5310   -0.9065 C   0  0  0  0  0  0  0  0  0  0  0  0
    2.3804   -2.5701   -1.1739 H   0  0  0  0  0  0  0  0  0  0  0  0
    3.9362   -1.1114   -0.7418 C   0  0  0  0  0  0  0  0  0  0  0  0
    4.1408    0.2494   -0.3814 C   0  0  0  0  0  0  0  0  0  0  0  0
    5.1768    0.5894   -0.2494 H   0  0  0  0  0  0  0  0  0  0  0  0
    3.1200    1.1827   -0.1707 C   0  0  0  0  0  0  0  0  0  0  0  0
    1.7714    0.7233   -0.3413 C   0  0  0  0  0  0  0  0  0  0  0  0
    5.1472   -2.0428   -0.9124 C   0  0  0  0  0  0  0  0  0  0  0  0
    6.0670   -1.4905   -2.0248 C   0  0  0  0  0  0  0  0  0  0  0  0
    5.5300   -1.4398   -2.9934 H   0  0  0  0  0  0  0  0  0  0  0  0
    6.9548   -2.1435   -2.1553 H   0  0  0  0  0  0  0  0  0  0  0  0
    6.4330   -0.4713   -1.7887 H   0  0  0  0  0  0  0  0  0  0  0  0
    4.7210   -3.4703   -1.2948 C   0  0  0  0  0  0  0  0  0  0  0  0
    4.1722   -3.4917   -2.2581 H   0  0  0  0  0  0  0  0  0  0  0  0
    4.0751   -3.9283   -0.5184 H   0  0  0  0  0  0  0  0  0  0  0  0
    5.6164   -4.1142   -1.4069 H   0  0  0  0  0  0  0  0  0  0  0  0
    5.9288   -2.1079    0.4198 C   0  0  0  0  0  0  0  0  0  0  0  0
    6.2942   -1.1095    0.7327 H   0  0  0  0  0  0  0  0  0  0  0  0
    6.8119   -2.7726    0.3206 H   0  0  0  0  0  0  0  0  0  0  0  0
    5.2881   -2.5028    1.2341 H   0  0  0  0  0  0  0  0  0  0  0  0
    3.4003    2.6328    0.2597 C   0  0  0  0  0  0  0  0  0  0  0  0
    4.9098    2.9236    0.3346 C   0  0  0  0  0  0  0  0  0  0  0  0
    5.4233    2.2833    1.0805 H   0  0  0  0  0  0  0  0  0  0  0  0
    5.0661    3.9771    0.6415 H   0  0  0  0  0  0  0  0  0  0  0  0
    5.4092    2.7847   -0.6460 H   0  0  0  0  0  0  0  0  0  0  0  0
    2.7969    2.8645    1.6666 C   0  0  0  0  0  0  0  0  0  0  0  0
    1.7070    2.6801    1.6772 H   0  0  0  0  0  0  0  0  0  0  0  0
    2.9750    3.9114    1.9894 H   0  0  0  0  0  0  0  0  0  0  0  0
    3.2712    2.1927    2.4108 H   0  0  0  0  0  0  0  0  0  0  0  0
    2.7748    3.6204   -0.7550 C   0  0  0  0  0  0  0  0  0  0  0  0
    1.6769    3.5040   -0.8160 H   0  0  0  0  0  0  0  0  0  0  0  0
    3.2002    3.4650   -1.7676 H   0  0  0  0  0  0  0  0  0  0  0  0
    2.9987    4.6638   -0.4495 H   0  0  0  0  0  0  0  0  0  0  0  0
  4  5  1  6  0  0  0
  4 11  1  0  0  0  0
  4  2  1  0  0  0  0
  4  6  1  0  0  0  0
  6  7  1  6  0  0  0
  6  1  1  0  0  0  0
  6  8  1  0  0  0  0
  8 22  1  0  0  0  0
  8  9  1  0  0  0  0
 10  8  1  0  0  0  0
 11 12  1  0  0  0  0
 12 14  2  0  0  0  0
 12 13  1  0  0  0  0
 14 15  1  0  0  0  0
 16 17  1  0  0  0  0
 16 14  1  0  0  0  0
 18 16  2  0  0  0  0
 19 18  1  0  0  0  0
 20 18  1  0  0  0  0
 20 11  2  0  0  0  0
 21 20  1  0  0  0  0
 22 31  1  0  0  0  0
 23 22  2  0  0  0  0
 23 25  1  0  0  0  0
 24 23  1  0  0  0  0
 25 27  2  0  0  0  0
 26 25  1  0  0  0  0
 27 29  1  0  0  0  0
 27 28  1  0  0  0  0
 29 30  1  0  0  0  0
 31 32  1  0  0  0  0
 31 29  2  0  0  0  0
 33 35  1  0  0  0  0
 33  1  1  0  0  0  0
 34 33  1  0  0  0  0
 35 42  1  0  0  0  0
 36 38  1  0  0  0  0
 36 35  2  0  0  0  0
 37 36  1  0  0  0  0
 38 39  2  0  0  0  0
 39 40  1  0  0  0  0
 39 41  1  0  0  0  0
 41 56  1  0  0  0  0
 42 41  2  0  0  0  0
 42  3  1  0  0  0  0
 43 38  1  0  0  0  0
 43 52  1  0  0  0  0
 44 47  1  0  0  0  0
 44 43  1  0  0  0  0
 45 44  1  0  0  0  0
 46 44  1  0  0  0  0
 48 43  1  0  0  0  0
 48 50  1  0  0  0  0
 49 48  1  0  0  0  0
 51 48  1  0  0  0  0
 52 53  1  0  0  0  0
 52 55  1  0  0  0  0
 54 52  1  0  0  0  0
 56 57  1  0  0  0  0
 56 61  1  0  0  0  0
 57 59  1  0  0  0  0
 57 58  1  0  0  0  0
 60 57  1  0  0  0  0
 61 62  1  0  0  0  0
 61 63  1  0  0  0  0
 61 64  1  0  0  0  0
 65 68  1  0  0  0  0
 65 56  1  0  0  0  0
 66 65  1  0  0  0  0
 67 65  1  0  0  0  0
M  CHG  1   3  -1
M  END
