1,3,5
q = -2.0, confidence = 0.95

 36 37  0  0  0  0  0  0  0  0999 V2000
    0.1084   -1.5865   -0.1177 N   0  0  0  0  0  2  0  0  0  0  0  0
   -1.2254   -1.7925    0.0749 N   0  0  0  0  0  0  0  0  0  0  0  0
    2.3148   -0.1562   -0.4624 O   0  5  0  0  0  0  0  0  0  0  0  0
    4.9520    0.0669   -0.4210 O   0  0  0  0  0  0  0  0  0  0  0  0
   -1.2796    0.1315   -1.1651 O   0  5  0  0  0  0  0  0  0  0  0  0
   -3.6438   -2.8347    0.6443 O   0  0  0  0  0  0  0  0  0  0  0  0
    2.3635   -2.4033    0.3628 C   0  0  0  0  0  0  0  0  0  0  0  0
    3.0051   -1.2022   -0.0619 C   0  0  0  0  0  0  0  0  0  0  0  0
    4.4345   -1.1180   -0.0089 C   0  0  0  0  0  0  0  0  0  0  0  0
    5.1767   -2.2173    0.4457 C   0  0  0  0  0  0  0  0  0  0  0  0
    6.2731   -2.1621    0.4797 H   0  0  0  0  0  0  0  0  0  0  0  0
    4.5306   -3.4042    0.8631 C   0  0  0  0  0  0  0  0  0  0  0  0
    5.1368   -4.2518    1.2143 H   0  0  0  0  0  0  0  0  0  0  0  0
    3.1448   -3.4972    0.8307 C   0  0  0  0  0  0  0  0  0  0  0  0
    2.6329   -4.4152    1.1563 H   0  0  0  0  0  0  0  0  0  0  0  0
    0.9293   -2.4845    0.3835 C   0  0  0  0  0  3  0  0  0  0  0  0
    0.4521   -3.3562    0.8680 H   0  0  0  0  0  0  0  0  0  0  0  0
   -1.9074   -0.8303   -0.5275 C   0  0  0  0  0  0  0  0  0  0  0  0
   -3.3826   -0.7642   -0.5075 C   0  0  0  0  0  0  0  0  0  0  0  0
   -4.2303   -1.7572    0.0775 C   0  0  0  0  0  0  0  0  0  0  0  0
   -5.6306   -1.5790    0.0389 C   0  0  0  0  0  0  0  0  0  0  0  0
   -6.2917   -2.3342    0.4829 H   0  0  0  0  0  0  0  0  0  0  0  0
   -6.1929   -0.4458   -0.5645 C   0  0  0  0  0  0  0  0  0  0  0  0
   -7.2881   -0.3339   -0.5799 H   0  0  0  0  0  0  0  0  0  0  0  0
   -5.3719    0.5328   -1.1433 C   0  0  0  0  0  0  0  0  0  0  0  0
   -5.8097    1.4222   -1.6191 H   0  0  0  0  0  0  0  0  0  0  0  0
   -3.9847    0.3634   -1.1093 C   0  0  0  0  0  0  0  0  0  0  0  0
   -3.3124    1.1096   -1.5552 H   0  0  0  0  0  0  0  0  0  0  0  0
   -4.4545   -3.8421    1.2154 C   0  0  0  0  0  0  0  0  0  0  0  0
   -5.0714   -3.4542    2.0570 H   0  0  0  0  0  0  0  0  0  0  0  0
   -3.7604   -4.6107    1.6027 H   0  0  0  0  0  0  0  0  0  0  0  0
   -5.1297   -4.3097    0.4641 H   0  0  0  0  0  0  0  0  0  0  0  0
    6.3564    0.2179   -0.4102 C   0  0  0  0  0  0  0  0  0  0  0  0
    6.7785    0.1135    0.6155 H   0  0  0  0  0  0  0  0  0  0  0  0
    6.5646    1.2379   -0.7827 H   0  0  0  0  0  0  0  0  0  0  0  0
    6.8586   -0.5200   -1.0765 H   0  0  0  0  0  0  0  0  0  0  0  0
  1  2  1  0  0  0  0
  1 16  1  0  0  0  0
  3  8  1  0  0  0  0
  4 33  1  0  0  0  0
  4  9  1  0  0  0  0
  5 18  1  0  0  0  0
  6 29  1  0  0  0  0
  7 16  1  0  0  0  0
  7 14  1  0  0  0  0
  8  9  1  0  0  0  0
  8  7  2  0  0  0  0
  9 10  2  0  0  0  0
 10 11  1  0  0  0  0
 10 12  1  0  0  0  0
 12 13  1  0  0  0  0
 14 12  2  0  0  0  0
 14 15  1  0  0  0  0
 16 17  1  0  0  0  0
 18 19  1  0  0  0  0
 18  2  2  0  0  0  0
 19 20  1  0  0  0  0
 20  6  1  0  0  0  0
 21 20  2  0  0  0  0
 21 22  1  0  0  0  0
 23 21  1  0  0  0  0
 24 23  1  0  0  0  0
 25 27  1  0  0  0  0
 25 23  2  0  0  0  0
 26 25  1  0  0  0  0
 27 19  2  0  0  0  0
 28 27  1  0  0  0  0
 29 31  1  0  0  0  0
 29 30  1  0  0  0  0
 32 29  1  0  0  0  0
 33 34  1  0  0  0  0
 35 33  1  0  0  0  0
 36 33  1  0  0  0  0
M  CHG  2   3  -1   5  -1
M  END
