3,4,6
q = -2.0, confidence = 0.952

 42 44  0  0  1  0  0  0  0  0999 V2000
   -2.7263    2.8614    0.0156 O   0  0  0  0  0  0  0  0  0  0  0  0
   -1.7530    2.5768    0.0307 H   0  0  0  0  0  0  0  0  0  0  0  0
   -0.8069   -0.8888   -0.0600 O   0  5  0  0  0  0  0  0  0  0  0  0
    2.7633   -0.5142   -0.2895 O   0  5  0  0  0  0  0  0  0  0  0  0
   -0.6185    1.3839    0.0382 N   0  0  0  0  0  0  0  0  0  0  0  0
    0.6958    1.0525    0.1226 N   0  0  0  0  0  2  0  0  0  0  0  0
   -3.4521    1.7363   -0.0451 C   0  0  0  0  0  0  0  0  0  0  0  0
   -4.8453    1.8184   -0.0861 C   0  0  0  0  0  0  0  0  0  0  0  0
   -5.3042    2.8177   -0.0657 H   0  0  0  0  0  0  0  0  0  0  0  0
   -5.6608    0.6605   -0.1516 C   0  0  0  0  0  0  0  0  0  0  0  0
   -7.0870    0.7321   -0.1931 C   0  0  0  0  0  0  0  0  0  0  0  0
   -7.5664    1.7230   -0.1729 H   0  0  0  0  0  0  0  0  0  0  0  0
   -7.8564   -0.4192   -0.2573 C   0  0  0  0  0  0  0  0  0  0  0  0
   -8.9541   -0.3421   -0.2884 H   0  0  0  0  0  0  0  0  0  0  0  0
   -7.2431   -1.7042   -0.2836 C   0  0  0  0  0  0  0  0  0  0  0  0
   -7.8690   -2.6077   -0.3346 H   0  0  0  0  0  0  0  0  0  0  0  0
   -5.8627   -1.8115   -0.2447 C   0  0  0  0  0  0  0  0  0  0  0  0
   -5.3758   -2.7992   -0.2644 H   0  0  0  0  0  0  0  0  0  0  0  0
   -5.0392   -0.6469   -0.1783 C   0  0  0  0  0  0  0  0  0  0  0  0
   -3.6268   -0.7213   -0.1374 C   0  0  0  0  0  0  0  0  0  0  0  0
   -3.1267   -1.7011   -0.1554 H   0  0  0  0  0  0  0  0  0  0  0  0
   -2.8302    0.4252   -0.0712 C   0  0  0  0  0  0  0  0  0  0  0  0
   -1.3744    0.2922   -0.0238 C   0  0  0  0  0  0  0  0  0  0  0  0
    1.5829    2.0473    0.2004 C   0  0  2  0  0  3  0  0  0  0  0  0
    1.0878    3.4645    0.2868 C   0  0  0  0  0  0  0  0  0  0  0  0
    0.3752    3.5759    1.1292 H   0  0  0  0  0  0  0  0  0  0  0  0
    0.5258    3.7334   -0.6315 H   0  0  0  0  0  0  0  0  0  0  0  0
    1.9241    4.1744    0.4158 H   0  0  0  0  0  0  0  0  0  0  0  0
    2.9823    1.7836    0.1831 C   0  0  0  0  0  0  0  0  0  0  0  0
    3.6504    2.6408    0.3228 H   0  0  0  0  0  0  0  0  0  0  0  0
    3.5344    0.5366   -0.0916 C   0  0  0  0  0  0  0  0  0  0  0  0
    4.9881    0.2842   -0.2187 C   0  0  0  0  0  0  0  0  0  0  0  0
    5.9457    1.3255   -0.2125 C   0  0  0  0  0  0  0  0  0  0  0  0
    5.6256    2.3737   -0.1280 H   0  0  0  0  0  0  0  0  0  0  0  0
    7.3098    1.0376   -0.3288 C   0  0  0  0  0  0  0  0  0  0  0  0
    8.0414    1.8595   -0.3241 H   0  0  0  0  0  0  0  0  0  0  0  0
    7.7454   -0.2926   -0.4572 C   0  0  0  0  0  0  0  0  0  0  0  0
    8.8192   -0.5151   -0.5491 H   0  0  0  0  0  0  0  0  0  0  0  0
    6.8037   -1.3340   -0.4701 C   0  0  0  0  0  0  0  0  0  0  0  0
    7.1373   -2.3779   -0.5705 H   0  0  0  0  0  0  0  0  0  0  0  0
    5.4381   -1.0501   -0.3526 C   0  0  0  0  0  0  0  0  0  0  0  0
    4.6918   -1.8567   -0.3575 H   0  0  0  0  0  0  0  0  0  0  0  0
  1  2  1  0  0  0  0
  3 23  1  0  0  0  0
  4 31  1  0  0  0  0
  5  6  1  0  0  0  0
  7  1  1  0  0  0  0
  8  9  1  0  0  0  0
  8  7  2  0  0  0  0
 10  8  1  0  0  0  0
 11 12  1  0  0  0  0
 11 10  2  0  0  0  0
 13 11  1  0  0  0  0
 14 13  1  0  0  0  0
 15 13  2  0  0  0  0
 15 17  1  0  0  0  0
 16 15  1  0  0  0  0
 17 19  2  0  0  0  0
 18 17  1  0  0  0  0
 19 10  1  0  0  0  0
 19 20  1  0  0  0  0
 20 22  2  0  0  0  0
 21 20  1  0  0  0  0
 22  7  1  0  0  0  0
 22 23  1  0  0  0  0
 23  5  2  0  0  0  0
 24  6  1  6  0  0  0
 24 25  1  0  0  0  0
 25 28  1  0  0  0  0
 25 26  1  0  0  0  0
 27 25  1  0  0  0  0
 29 24  1  0  0  0  0
 29 30  1  0  0  0  0
 31 29  2  0  0  0  0
 32 33  1  0  0  0  0
 32 31  1  0  0  0  0
 33 34  1  0  0  0  0
 35 36  1  0  0  0  0
 35 33  2  0  0  0  0
 37 35  1  0  0  0  0
 38 37  1  0  0  0  0
 39 37  2  0  0  0  0
 39 41  1  0  0  0  0
 40 39  1  0  0  0  0
 41 32  2  0  0  0  0
 42 41  1  0  0  0  0
M  CHG  2   3  -1   4  -1
M  END
