1,2,4
q = -2.0, confidence = 0.892

 19 20  0  0  0  0  0  0  0  0999 V2000
    1.2294    0.6242   -0.1930 N   0  0  0  0  0  2  0  0  0  0  0  0
   -0.9830    1.9112   -0.0344 O   0  5  0  0  0  0  0  0  0  0  0  0
   -0.0443    3.8569   -0.6957 O   0  0  0  0  0  0  0  0  0  0  0  0
    0.6741   -1.8068    0.6544 O   0  5  0  0  0  0  0  0  0  0  0  0
    0.0395    2.6634   -0.4435 C   0  0  0  0  0  0  0  0  0  0  0  0
    1.3458    1.9049   -0.5465 C   0  0  0  0  0  0  0  0  0  0  0  0
    2.6141    2.4031   -0.9331 C   0  0  0  0  0  0  0  0  0  0  0  0
    2.6871    3.4613   -1.2215 H   0  0  0  0  0  0  0  0  0  0  0  0
    3.7130    1.5477   -0.9345 C   0  0  0  0  0  0  0  0  0  0  0  0
    4.7032    1.9216   -1.2380 H   0  0  0  0  0  0  0  0  0  0  0  0
    3.5830    0.1768   -0.5371 C   0  0  0  0  0  0  0  0  0  0  0  0
    4.6107   -0.8013   -0.4658 C   0  0  0  0  0  3  0  0  0  0  0  0
    5.6405   -0.5389   -0.7475 H   0  0  0  0  0  0  0  0  0  0  0  0
    4.2914   -2.0928   -0.0313 C   0  0  0  0  0  0  0  0  0  0  0  0
    5.0943   -2.8448    0.0204 H   0  0  0  0  0  0  0  0  0  0  0  0
    2.9864   -2.4909    0.3511 C   0  0  0  0  0  0  0  0  0  0  0  0
    2.7881   -3.5163    0.6940 H   0  0  0  0  0  0  0  0  0  0  0  0
    1.9277   -1.5637    0.2973 C   0  0  0  0  0  0  0  0  0  0  0  0
    2.2699   -0.2454   -0.1624 C   0  0  0  0  0  0  0  0  0  0  0  0
  1 19  1  0  0  0  0
  3  5  2  0  0  0  0
  5  2  1  0  0  0  0
  6  5  1  0  0  0  0
  6  1  1  0  0  0  0
  7  6  2  0  0  0  0
  8  7  1  0  0  0  0
  9  7  1  0  0  0  0
  9 11  2  0  0  0  0
 10  9  1  0  0  0  0
 11 12  1  0  0  0  0
 11 19  1  0  0  0  0
 12 14  1  0  0  0  0
 13 12  1  0  0  0  0
 14 15  1  0  0  0  0
 14 16  2  0  0  0  0
 16 17  1  0  0  0  0
 18 16  1  0  0  0  0
 18  4  1  0  0  0  0
 19 18  2  0  0  0  0
M  CHG  2   2  -1   4  -1
M  END
