2,5,8
q = -2.0, confidence = 0.766

 34 35  0  0  0  0  0  0  0  0999 V2000
    0.6316   -1.1043   -0.0891 N   0  0  0  0  0  0  0  0  0  0  0  0
   -0.6628   -0.7020   -0.1648 N   0  0  0  0  0  2  0  0  0  0  0  0
    3.8048    0.7841   -0.1538 N   0  0  0  0  0  0  0  0  0  0  0  0
    6.0370   -2.0566    0.0638 N   0  0  0  0  0  0  0  0  0  0  0  0
    0.9513    1.1713   -0.2794 O   0  5  0  0  0  0  0  0  0  0  0  0
    7.1745   -1.5714    0.0682 O   0  0  0  0  0  0  0  0  0  0  0  0
    5.7716   -3.2596    0.1244 O   0  0  0  0  0  0  0  0  0  0  0  0
   -2.7098    0.9810    0.1263 O   0  5  0  0  0  0  0  0  0  0  0  0
    1.4220   -0.0450   -0.1673 C   0  0  0  0  0  0  0  0  0  0  0  0
    2.8646   -0.2527   -0.1233 C   0  0  0  0  0  0  0  0  0  0  0  0
    3.5535   -1.4666   -0.0382 C   0  0  0  0  0  0  0  0  0  0  0  0
    3.1049   -2.4620    0.0048 H   0  0  0  0  0  0  0  0  0  0  0  0
    4.9277   -1.1367   -0.0186 C   0  0  0  0  0  0  0  0  0  0  0  0
    5.0585    0.2548   -0.0911 C   0  0  0  0  0  0  0  0  0  0  0  0
    5.9632    0.8696   -0.0999 H   0  0  0  0  0  0  0  0  0  0  0  0
    3.5302    2.2136   -0.2385 C   0  0  0  0  0  0  0  0  0  0  0  0
    4.4940    2.7532   -0.2052 H   0  0  0  0  0  0  0  0  0  0  0  0
    2.8885    2.5345    0.6025 H   0  0  0  0  0  0  0  0  0  0  0  0
    2.9974    2.4526   -1.1776 H   0  0  0  0  0  0  0  0  0  0  0  0
   -1.5878   -1.6359   -0.1408 C   0  0  0  0  0  3  0  0  0  0  0  0
   -1.2292   -2.6814   -0.1049 H   0  0  0  0  0  0  0  0  0  0  0  0
   -3.0040   -1.3863   -0.1474 C   0  0  0  0  0  0  0  0  0  0  0  0
   -3.5218   -0.0607   -0.0091 C   0  0  0  0  0  0  0  0  0  0  0  0
   -4.9215    0.1262    0.0317 C   0  0  0  0  0  0  0  0  0  0  0  0
   -5.3048    1.1504    0.1442 H   0  0  0  0  0  0  0  0  0  0  0  0
   -5.7837   -0.9673   -0.0699 C   0  0  0  0  0  0  0  0  0  0  0  0
   -6.8715   -0.7941   -0.0410 H   0  0  0  0  0  0  0  0  0  0  0  0
   -5.2987   -2.2921   -0.2087 C   0  0  0  0  0  0  0  0  0  0  0  0
   -3.9123   -2.4731   -0.2376 C   0  0  0  0  0  0  0  0  0  0  0  0
   -3.4980   -3.4893   -0.3393 H   0  0  0  0  0  0  0  0  0  0  0  0
   -6.2544   -3.4528   -0.3239 C   0  0  0  0  0  0  0  0  0  0  0  0
   -5.7178   -4.4200   -0.3684 H   0  0  0  0  0  0  0  0  0  0  0  0
   -6.8792   -3.3725   -1.2384 H   0  0  0  0  0  0  0  0  0  0  0  0
   -6.9522   -3.4911    0.5384 H   0  0  0  0  0  0  0  0  0  0  0  0
  2 20  1  0  0  0  0
  2  1  1  0  0  0  0
  3 10  1  0  0  0  0
  3 14  1  0  0  0  0
  4  6  2  0  0  0  0
  4  7  2  0  0  0  0
  5  9  1  0  0  0  0
  9 10  1  0  0  0  0
  9  1  2  0  0  0  0
 10 11  2  0  0  0  0
 11 13  1  0  0  0  0
 11 12  1  0  0  0  0
 13  4  1  0  0  0  0
 14 13  2  0  0  0  0
 15 14  1  0  0  0  0
 16 17  1  0  0  0  0
 16  3  1  0  0  0  0
 16 18  1  0  0  0  0
 19 16  1  0  0  0  0
 20 21  1  0  0  0  0
 22 20  1  0  0  0  0
 22 23  1  0  0  0  0
 23 24  2  0  0  0  0
 23  8  1  0  0  0  0
 24 25  1  0  0  0  0
 26 27  1  0  0  0  0
 26 24  1  0  0  0  0
 28 26  2  0  0  0  0
 29 28  1  0  0  0  0
 29 22  2  0  0  0  0
 30 29  1  0  0  0  0
 31 28  1  0  0  0  0
 31 34  1  0  0  0  0
 32 31  1  0  0  0  0
 33 31  1  0  0  0  0
M  CHG  2   5  -1   8  -1
M  END
