1,2,4
q = -2.0, confidence = 0.882

 35 36  0  0  1  0  0  0  0  0999 V2000
    1.6252   -1.5240    0.1028 O   0  5  0  0  0  0  0  0  0  0  0  0
   -1.9961   -0.6356   -0.4817 O   0  0  0  0  0  1  0  0  0  0  0  0
    6.1256    1.7065    0.1980 O   0  0  0  0  0  0  0  0  0  0  0  0
    0.0909    0.7478    0.1552 N   0  0  0  0  0  2  0  0  0  0  0  0
    2.6590   -0.6871    0.1111 C   0  0  0  0  0  0  0  0  0  0  0  0
    3.9692   -1.2315    0.1024 C   0  0  0  0  0  0  0  0  0  0  0  0
    5.0896   -0.4097    0.1275 C   0  0  0  0  0  0  0  0  0  0  0  0
    4.9593    1.0021    0.1795 C   0  0  0  0  0  0  0  0  0  0  0  0
    3.6787    1.5611    0.2134 C   0  0  0  0  0  0  0  0  0  0  0  0
    2.5204    0.7349    0.1730 C   0  0  0  0  0  0  0  0  0  0  0  0
    1.2241    1.3647    0.2820 C   0  0  0  0  0  3  0  0  0  0  0  0
   -1.1760    1.4161    0.3696 C   0  0  0  0  0  0  0  0  0  0  0  0
   -2.1895    0.7547   -0.5912 C   0  0  2  0  0  0  0  0  0  0  0  0
   -3.6165    1.1550   -0.2694 C   0  0  0  0  0  0  0  0  0  0  0  0
   -4.0580    2.4652   -0.5393 C   0  0  0  0  0  0  0  0  0  0  0  0
   -5.3607    2.8603   -0.2031 C   0  0  0  0  0  0  0  0  0  0  0  0
   -6.2401    1.9457    0.3997 C   0  0  0  0  0  0  0  0  0  0  0  0
   -5.8091    0.6354    0.6582 C   0  0  0  0  0  0  0  0  0  0  0  0
   -4.5033    0.2413    0.3263 C   0  0  0  0  0  0  0  0  0  0  0  0
    6.0467    3.1165    0.2472 C   0  0  0  0  0  0  0  0  0  0  0  0
    4.0677   -2.3255    0.0610 H   0  0  0  0  0  0  0  0  0  0  0  0
    6.1044   -0.8336    0.1049 H   0  0  0  0  0  0  0  0  0  0  0  0
    3.5346    2.6493    0.2678 H   0  0  0  0  0  0  0  0  0  0  0  0
    1.2236    2.4526    0.5162 H   0  0  0  0  0  0  0  0  0  0  0  0
   -1.1111    2.5180    0.2343 H   0  0  0  0  0  0  0  0  0  0  0  0
   -1.5157    1.2101    1.4089 H   0  0  0  0  0  0  0  0  0  0  0  0
   -1.9420    1.0807   -1.6326 H   0  0  0  0  0  0  0  0  0  0  0  0
   -3.3779    3.1822   -1.0277 H   0  0  0  0  0  0  0  0  0  0  0  0
   -5.6950    3.8863   -0.4204 H   0  0  0  0  0  0  0  0  0  0  0  0
   -7.2645    2.2534    0.6589 H   0  0  0  0  0  0  0  0  0  0  0  0
   -6.4980   -0.0902    1.1175 H   0  0  0  0  0  0  0  0  0  0  0  0
   -4.1565   -0.7870    0.5028 H   0  0  0  0  0  0  0  0  0  0  0  0
    5.5359    3.4725    1.1712 H   0  0  0  0  0  0  0  0  0  0  0  0
    5.5115    3.5335   -0.6363 H   0  0  0  0  0  0  0  0  0  0  0  0
    7.0869    3.4915    0.2464 H   0  0  0  0  0  0  0  0  0  0  0  0
  1  5  1  0  0  0  0
  3 20  1  0  0  0  0
  4 11  1  0  0  0  0
  4 12  1  0  0  0  0
  5 10  1  0  0  0  0
  6  5  2  0  0  0  0
  6  7  1  0  0  0  0
  7  8  2  0  0  0  0
  8  3  1  0  0  0  0
  8  9  1  0  0  0  0
  9 23  1  0  0  0  0
 10  9  2  0  0  0  0
 10 11  1  0  0  0  0
 11 24  1  0  0  0  0
 12 26  1  0  0  0  0
 13 27  1  6  0  0  0
 13  2  1  0  0  0  0
 13 14  1  0  0  0  0
 13 12  1  0  0  0  0
 14 19  1  0  0  0  0
 15 14  2  0  0  0  0
 15 16  1  0  0  0  0
 16 17  2  0  0  0  0
 17 18  1  0  0  0  0
 17 30  1  0  0  0  0
 18 31  1  0  0  0  0
 19 32  1  0  0  0  0
 19 18  2  0  0  0  0
 20 33  1  0  0  0  0
 21  6  1  0  0  0  0
 22  7  1  0  0  0  0
 25 12  1  0  0  0  0
 28 15  1  0  0  0  0
 29 16  1  0  0  0  0
 34 20  1  0  0  0  0
 35 20  1  0  0  0  0
M  CHG  1   1  -1
M  END
