1,2,5
q = -2.0, confidence = 0.936

 36 37  0  0  1  0  0  0  0  0999 V2000
    1.9585   -0.5202   -1.4399 O   0  5  0  0  0  0  0  0  0  0  0  0
   -0.7002   -3.1149   -1.0205 O   0  5  0  0  0  0  0  0  0  0  0  0
   -1.7169   -3.9915    0.8050 O   0  0  0  0  0  0  0  0  0  0  0  0
    1.9699   -1.0791    0.7931 N   0  0  0  0  0  0  0  0  0  0  0  0
    1.0331   -1.9234    0.3214 N   0  0  0  0  0  2  0  0  0  0  0  0
    3.4486    0.6760   -0.0007 C   0  0  0  0  0  0  0  0  0  0  0  0
    3.8956    1.4778   -1.0700 C   0  0  0  0  0  0  0  0  0  0  0  0
    3.4627    1.3147   -2.0672 H   0  0  0  0  0  0  0  0  0  0  0  0
    4.8716    2.4579   -0.8558 C   0  0  0  0  0  0  0  0  0  0  0  0
    5.2133    3.0787   -1.6990 H   0  0  0  0  0  0  0  0  0  0  0  0
    5.4291    2.6659    0.4223 C   0  0  0  0  0  0  0  0  0  0  0  0
    4.9740    1.8547    1.4869 C   0  0  0  0  0  0  0  0  0  0  0  0
    5.3974    1.9992    2.4937 H   0  0  0  0  0  0  0  0  0  0  0  0
    4.0001    0.8749    1.2850 C   0  0  0  0  0  0  0  0  0  0  0  0
    3.6503    0.2424    2.1131 H   0  0  0  0  0  0  0  0  0  0  0  0
    6.4840    3.7156    0.6575 C   0  0  0  0  0  0  0  0  0  0  0  0
    6.1702    4.4319    1.4452 H   0  0  0  0  0  0  0  0  0  0  0  0
    6.7022    4.2922   -0.2618 H   0  0  0  0  0  0  0  0  0  0  0  0
    7.4338    3.2573    1.0050 H   0  0  0  0  0  0  0  0  0  0  0  0
    2.4185   -0.3537   -0.2346 C   0  0  0  0  0  0  0  0  0  0  0  0
    0.2069   -2.5827    1.0819 C   0  0  2  0  0  3  0  0  0  0  0  0
   -0.8398   -3.3181    0.2823 C   0  0  0  0  0  0  0  0  0  0  0  0
    0.1306   -2.4849    2.5719 C   0  0  0  0  0  0  0  0  0  0  0  0
    1.1444   -2.3197    2.9830 H   0  0  0  0  0  0  0  0  0  0  0  0
   -0.2862   -3.4370    2.9529 H   0  0  0  0  0  0  0  0  0  0  0  0
   -0.7903   -1.3282    2.9422 C   0  0  0  0  0  0  0  0  0  0  0  0
   -0.2696   -0.0335    3.1402 C   0  0  0  0  0  0  0  0  0  0  0  0
    0.8129    0.1318    3.0336 H   0  0  0  0  0  0  0  0  0  0  0  0
   -1.1226    1.0341    3.4579 C   0  0  0  0  0  0  0  0  0  0  0  0
   -0.7023    2.0387    3.6187 H   0  0  0  0  0  0  0  0  0  0  0  0
   -2.5065    0.8227    3.5722 C   0  0  0  0  0  0  0  0  0  0  0  0
   -3.1734    1.6585    3.8356 H   0  0  0  0  0  0  0  0  0  0  0  0
   -3.0347   -0.4594    3.3474 C   0  0  0  0  0  0  0  0  0  0  0  0
   -4.1196   -0.6310    3.4217 H   0  0  0  0  0  0  0  0  0  0  0  0
   -2.1831   -1.5278    3.0282 C   0  0  0  0  0  0  0  0  0  0  0  0
   -2.5921   -2.5298    2.8272 H   0  0  0  0  0  0  0  0  0  0  0  0
  1 20  1  0  0  0  0
  2 22  1  0  0  0  0
  5  4  1  0  0  0  0
  5 21  1  0  0  0  0
  6 14  1  0  0  0  0
  7  9  1  0  0  0  0
  7  6  2  0  0  0  0
  8  7  1  0  0  0  0
  9 11  2  0  0  0  0
 10  9  1  0  0  0  0
 11 16  1  0  0  0  0
 11 12  1  0  0  0  0
 12 13  1  0  0  0  0
 14 12  2  0  0  0  0
 14 15  1  0  0  0  0
 16 19  1  0  0  0  0
 16 17  1  0  0  0  0
 18 16  1  0  0  0  0
 20  6  1  0  0  0  0
 20  4  2  0  0  0  0
 21 22  1  6  0  0  0
 21 23  1  0  0  0  0
 22  3  2  0  0  0  0
 23 26  1  0  0  0  0
 23 25  1  0  0  0  0
 23 24  1  0  0  0  0
 26 35  2  0  0  0  0
 26 27  1  0  0  0  0
 27 29  2  0  0  0  0
 28 27  1  0  0  0  0
 29 31  1  0  0  0  0
 29 30  1  0  0  0  0
 31 32  1  0  0  0  0
 33 34  1  0  0  0  0
 33 31  2  0  0  0  0
 35 33  1  0  0  0  0
 36 35  1  0  0  0  0
M  CHG  2   1  -1   2  -1
M  END
