2,4,7
q = -2.0, confidence = 0.796

 26 26  0  0  0  0  0  0  0  0999 V2000
    1.7660    2.8460   -0.6348 S   0  0  0  0  0  0  0  0  0  0  0  0
   -1.2056   -0.4836    0.8912 O   0  5  0  0  0  0  0  0  0  0  0  0
   -7.4547   -1.8098    0.5894 O   0  0  0  0  0  0  0  0  0  0  0  0
    1.5376    1.3181   -0.9115 O   0  0  0  0  0  1  0  0  0  0  0  0
    2.0305    3.1233    0.8172 O   0  0  0  0  0  1  0  0  0  0  0  0
    2.7432    3.3686   -1.6066 O   0  0  0  0  0  1  0  0  0  0  0  0
   -1.1591    1.4306   -1.1032 N   0  0  0  0  0  2  0  0  0  0  0  0
   -2.4720   -0.5708    0.6466 C   0  0  0  0  0  0  0  0  0  0  0  0
   -3.2579   -1.4896    1.4232 C   0  0  0  0  0  0  0  0  0  0  0  0
   -2.7272   -2.0712    2.1910 H   0  0  0  0  0  0  0  0  0  0  0  0
   -4.6130   -1.6380    1.2023 C   0  0  0  0  0  0  0  0  0  0  0  0
   -5.2167   -2.3489    1.7878 H   0  0  0  0  0  0  0  0  0  0  0  0
   -5.2844   -0.8707    0.2036 C   0  0  0  0  0  0  0  0  0  0  0  0
   -4.5445    0.0440   -0.5507 C   0  0  0  0  0  3  0  0  0  0  0  0
   -5.0584    0.6512   -1.3164 H   0  0  0  0  0  0  0  0  0  0  0  0
   -3.1533    0.2136   -0.3602 C   0  0  0  0  0  0  0  0  0  0  0  0
   -2.4500    1.2002   -1.1240 C   0  0  0  0  0  0  0  0  0  0  0  0
   -3.0696    1.8391   -1.7852 H   0  0  0  0  0  0  0  0  0  0  0  0
   -0.6592    2.5567   -1.9005 C   0  0  0  0  0  0  0  0  0  0  0  0
   -1.5138    3.0745   -2.3873 H   0  0  0  0  0  0  0  0  0  0  0  0
    0.0104    2.1744   -2.6991 H   0  0  0  0  0  0  0  0  0  0  0  0
    0.1097    3.5393   -1.0244 C   0  0  0  0  0  0  0  0  0  0  0  0
   -0.4081    3.7104   -0.0594 H   0  0  0  0  0  0  0  0  0  0  0  0
    0.3068    4.4975   -1.5417 H   0  0  0  0  0  0  0  0  0  0  0  0
   -6.7292   -1.0360   -0.0209 C   0  0  0  0  0  0  0  0  0  0  0  0
   -7.1450   -0.3658   -0.8372 H   0  0  0  0  0  0  0  0  0  0  0  0
  1  5  1  0  0  0  0
  4  1  1  0  0  0  0
  6  1  1  0  0  0  0
  8  2  1  0  0  0  0
  8  9  2  0  0  0  0
  9 10  1  0  0  0  0
 11  9  1  0  0  0  0
 11 12  1  0  0  0  0
 13 11  2  0  0  0  0
 14 16  1  0  0  0  0
 14 13  1  0  0  0  0
 15 14  1  0  0  0  0
 16  8  1  0  0  0  0
 17  7  1  0  0  0  0
 17 16  2  0  0  0  0
 18 17  1  0  0  0  0
 19  7  1  0  0  0  0
 19 22  1  0  0  0  0
 20 19  1  0  0  0  0
 21 19  1  0  0  0  0
 22  1  1  0  0  0  0
 22 23  1  0  0  0  0
 24 22  1  0  0  0  0
 25 13  1  0  0  0  0
 25  3  2  0  0  0  0
 26 25  1  0  0  0  0
M  CHG  1   2  -1
M  END
