28,30,31
q = -2.0, confidence = 0.94

 32 33  0  0  1  0  0  0  0  0999 V2000
    2.4567   -0.8528   -0.0077 C   0  0  0  0  0  0  0  0  0  0  0  0
    3.9345   -0.8449   -0.0343 C   0  0  0  0  0  0  0  0  0  0  0  0
    4.6621   -2.0512    0.0761 C   0  0  0  0  0  0  0  0  0  0  0  0
    4.1024   -2.9913    0.1813 H   0  0  0  0  0  0  0  0  0  0  0  0
    6.0611   -2.0338    0.0520 C   0  0  0  0  0  0  0  0  0  0  0  0
    6.6203   -2.9779    0.1407 H   0  0  0  0  0  0  0  0  0  0  0  0
    6.7530   -0.8174   -0.0848 C   0  0  0  0  0  0  0  0  0  0  0  0
    7.8536   -0.8071   -0.1036 H   0  0  0  0  0  0  0  0  0  0  0  0
    6.0349    0.3841   -0.1995 C   0  0  0  0  0  0  0  0  0  0  0  0
    6.5724    1.3383   -0.3114 H   0  0  0  0  0  0  0  0  0  0  0  0
    4.6340    0.3724   -0.1748 C   0  0  0  0  0  0  0  0  0  0  0  0
    4.0586    1.3038   -0.2725 H   0  0  0  0  0  0  0  0  0  0  0  0
   -0.3680   -2.7771    0.0526 C   0  0  0  0  0  0  0  0  0  0  0  0
    0.1118   -3.7715    0.0681 H   0  0  0  0  0  0  0  0  0  0  0  0
   -1.7933   -2.6843    0.0450 C   0  0  0  0  0  0  0  0  0  0  0  0
   -2.4387   -1.4043    0.0214 C   0  0  2  0  0  3  0  0  0  0  0  0
   -3.8794   -1.3687   -0.0146 C   0  0  0  0  0  0  0  0  0  0  0  0
   -4.6184   -2.5526   -0.0089 C   0  0  0  0  0  0  0  0  0  0  0  0
   -5.7160   -2.5193   -0.0338 H   0  0  0  0  0  0  0  0  0  0  0  0
   -3.9633   -3.8108    0.0275 C   0  0  0  0  0  0  0  0  0  0  0  0
   -4.5652   -4.7311    0.0328 H   0  0  0  0  0  0  0  0  0  0  0  0
   -2.5799   -3.8763    0.0519 C   0  0  0  0  0  0  0  0  0  0  0  0
   -2.0635   -4.8480    0.0739 H   0  0  0  0  0  0  0  0  0  0  0  0
   -5.8142    0.0107   -0.0925 C   0  0  0  0  0  0  0  0  0  0  0  0
   -6.2512   -0.4728   -0.9963 H   0  0  0  0  0  0  0  0  0  0  0  0
   -6.0380    1.0937   -0.1214 H   0  0  0  0  0  0  0  0  0  0  0  0
   -6.2947   -0.4329    0.8094 H   0  0  0  0  0  0  0  0  0  0  0  0
    0.4583   -1.7463    0.0332 N   0  0  0  0  0  2  0  0  0  0  0  0
    1.8044   -2.0005    0.0276 N   0  0  0  0  0  0  0  0  0  0  0  0
    1.8217    0.2993   -0.0256 O   0  5  0  0  0  0  0  0  0  0  0  0
   -1.8104   -0.2575    0.0275 O   0  0  0  0  0  1  0  0  0  0  0  0
   -4.4088   -0.1103   -0.0553 O   0  0  0  0  0  0  0  0  0  0  0  0
  1 29  2  0  0  0  0
  2  1  1  0  0  0  0
  2  3  1  0  0  0  0
  3  4  1  0  0  0  0
  5  3  2  0  0  0  0
  5  6  1  0  0  0  0
  7  5  1  0  0  0  0
  8  7  1  0  0  0  0
  9 11  1  0  0  0  0
  9  7  2  0  0  0  0
 10  9  1  0  0  0  0
 11  2  2  0  0  0  0
 12 11  1  0  0  0  0
 13 14  1  0  0  0  0
 15 22  1  0  0  0  0
 15 13  2  0  0  0  0
 16 31  1  6  0  0  0
 16 15  1  0  0  0  0
 17 18  2  0  0  0  0
 17 16  1  0  0  0  0
 18 20  1  0  0  0  0
 19 18  1  0  0  0  0
 20 21  1  0  0  0  0
 20 22  2  0  0  0  0
 22 23  1  0  0  0  0
 24 32  1  0  0  0  0
 24 27  1  0  0  0  0
 25 24  1  0  0  0  0
 26 24  1  0  0  0  0
 28 13  1  0  0  0  0
 29 28  1  0  0  0  0
 30  1  1  0  0  0  0
 32 17  1  0  0  0  0
M  CHG  1  30  -1
M  END
