1,3,4
q = -2.0, confidence = 0.916

 34 34  0  0  0  0  0  0  0  0999 V2000
   -0.7783    1.2869   -0.0821 N   0  0  0  0  0  2  0  0  0  0  0  0
    0.0184    2.3302    0.3114 N   0  0  0  0  0  0  0  0  0  0  0  0
   -1.2689   -1.2344   -0.7228 O   0  5  0  0  0  0  0  0  0  0  0  0
    1.4882    1.1931   -1.0248 O   0  5  0  0  0  0  0  0  0  0  0  0
   -6.5920   -0.5280    0.5925 O   0  0  0  0  0  0  0  0  0  0  0  0
   -2.9758    0.2414    0.0863 C   0  0  0  0  0  0  0  0  0  0  0  0
   -2.5403   -1.0211   -0.4244 C   0  0  0  0  0  0  0  0  0  0  0  0
   -3.4886   -2.0653   -0.5547 C   0  0  0  0  0  0  0  0  0  0  0  0
   -3.1423   -3.0351   -0.9387 H   0  0  0  0  0  0  0  0  0  0  0  0
   -4.8214   -1.8608   -0.2105 C   0  0  0  0  0  0  0  0  0  0  0  0
   -5.5643   -2.6645   -0.3197 H   0  0  0  0  0  0  0  0  0  0  0  0
   -5.2639   -0.6101    0.2917 C   0  0  0  0  0  0  0  0  0  0  0  0
   -4.3394    0.4280    0.4470 C   0  0  0  0  0  0  0  0  0  0  0  0
   -4.6416    1.4081    0.8405 H   0  0  0  0  0  0  0  0  0  0  0  0
   -2.0285    1.2968    0.3202 C   0  0  0  0  0  3  0  0  0  0  0  0
   -2.3455    2.1857    0.8970 H   0  0  0  0  0  0  0  0  0  0  0  0
    1.2090    2.1974   -0.2406 C   0  0  0  0  0  0  0  0  0  0  0  0
    2.3250    3.1908    0.0475 C   0  0  0  0  0  0  0  0  0  0  0  0
    2.8411    3.7409   -1.2991 C   0  0  0  0  0  0  0  0  0  0  0  0
    2.0497    4.3133   -1.8237 H   0  0  0  0  0  0  0  0  0  0  0  0
    3.1658    2.9156   -1.9616 H   0  0  0  0  0  0  0  0  0  0  0  0
    3.7016    4.4189   -1.1272 H   0  0  0  0  0  0  0  0  0  0  0  0
    3.4541    2.4066    0.7568 C   0  0  0  0  0  0  0  0  0  0  0  0
    4.3116    3.0789    0.9628 H   0  0  0  0  0  0  0  0  0  0  0  0
    3.8063    1.5669    0.1265 H   0  0  0  0  0  0  0  0  0  0  0  0
    3.1028    1.9885    1.7224 H   0  0  0  0  0  0  0  0  0  0  0  0
    1.8267    4.3342    0.9420 C   0  0  0  0  0  0  0  0  0  0  0  0
    1.0014    4.8908    0.4574 H   0  0  0  0  0  0  0  0  0  0  0  0
    2.6570    5.0406    1.1459 H   0  0  0  0  0  0  0  0  0  0  0  0
    1.4439    3.9503    1.9071 H   0  0  0  0  0  0  0  0  0  0  0  0
   -7.0815    0.6977    1.0955 C   0  0  0  0  0  0  0  0  0  0  0  0
   -6.5966    0.9758    2.0594 H   0  0  0  0  0  0  0  0  0  0  0  0
   -8.1651    0.5590    1.2671 H   0  0  0  0  0  0  0  0  0  0  0  0
   -6.9343    1.5327    0.3728 H   0  0  0  0  0  0  0  0  0  0  0  0
  1  2  1  0  0  0  0
  1 15  1  0  0  0  0
  3  7  1  0  0  0  0
  4 17  1  0  0  0  0
  5 31  1  0  0  0  0
  6 15  1  0  0  0  0
  6 13  1  0  0  0  0
  7  6  2  0  0  0  0
  8  7  1  0  0  0  0
  8 10  2  0  0  0  0
  9  8  1  0  0  0  0
 10 12  1  0  0  0  0
 11 10  1  0  0  0  0
 12 13  2  0  0  0  0
 12  5  1  0  0  0  0
 13 14  1  0  0  0  0
 15 16  1  0  0  0  0
 17 18  1  0  0  0  0
 17  2  2  0  0  0  0
 18 23  1  0  0  0  0
 18 27  1  0  0  0  0
 19 22  1  0  0  0  0
 19 18  1  0  0  0  0
 20 19  1  0  0  0  0
 21 19  1  0  0  0  0
 23 24  1  0  0  0  0
 23 26  1  0  0  0  0
 25 23  1  0  0  0  0
 27 29  1  0  0  0  0
 27 30  1  0  0  0  0
 28 27  1  0  0  0  0
 31 33  1  0  0  0  0
 31 32  1  0  0  0  0
 34 31  1  0  0  0  0
M  CHG  2   3  -1   4  -1
M  END
