1,2,3
q = -2.0, confidence = 0.858

 28 28  0  0  1  0  0  0  0  0999 V2000
    3.1926    0.1481    0.0576 O   0  0  0  0  0  1  0  0  0  0  0  0
   -0.4096   -0.1969   -0.5831 O   0  5  0  0  0  0  0  0  0  0  0  0
    1.2983   -1.8449    0.0633 N   0  0  0  0  0  2  0  0  0  0  0  0
    0.0448   -2.3891   -0.0609 N   0  0  0  0  0  0  0  0  0  0  0  0
    5.4485   -0.3861    0.5097 C   0  0  0  0  0  0  0  0  0  0  0  0
    4.0116   -0.8219    0.3508 C   0  0  1  0  0  3  0  0  0  0  0  0
    3.6397   -2.1574    0.5143 C   0  0  0  0  0  0  0  0  0  0  0  0
    2.3160   -2.6548    0.3744 C   0  0  0  0  0  0  0  0  0  0  0  0
    2.0252   -4.1169    0.5783 C   0  0  0  0  0  0  0  0  0  0  0  0
   -0.8070   -1.4379   -0.3908 C   0  0  0  0  0  0  0  0  0  0  0  0
   -2.2486   -1.7280   -0.5276 C   0  0  0  0  0  0  0  0  0  0  0  0
   -3.1532   -0.6691   -0.7608 C   0  0  0  0  0  0  0  0  0  0  0  0
   -4.5267   -0.9244   -0.8667 C   0  0  0  0  0  0  0  0  0  0  0  0
   -5.0144   -2.2361   -0.7470 C   0  0  0  0  0  0  0  0  0  0  0  0
   -4.1170   -3.2946   -0.5170 C   0  0  0  0  0  0  0  0  0  0  0  0
   -2.7441   -3.0455   -0.4064 C   0  0  0  0  0  0  0  0  0  0  0  0
    5.5199    0.4126    1.2769 H   0  0  0  0  0  0  0  0  0  0  0  0
    5.8218    0.0504   -0.4409 H   0  0  0  0  0  0  0  0  0  0  0  0
    6.1087   -1.2245    0.7984 H   0  0  0  0  0  0  0  0  0  0  0  0
    4.4225   -2.8829    0.7713 H   0  0  0  0  0  0  0  0  0  0  0  0
    1.5745   -4.5521   -0.3365 H   0  0  0  0  0  0  0  0  0  0  0  0
    1.2677   -4.2517    1.3765 H   0  0  0  0  0  0  0  0  0  0  0  0
    2.9450   -4.6711    0.8395 H   0  0  0  0  0  0  0  0  0  0  0  0
   -2.7560    0.3522   -0.8454 H   0  0  0  0  0  0  0  0  0  0  0  0
   -5.2240   -0.0904   -1.0423 H   0  0  0  0  0  0  0  0  0  0  0  0
   -6.0938   -2.4357   -0.8316 H   0  0  0  0  0  0  0  0  0  0  0  0
   -4.4944   -4.3247   -0.4225 H   0  0  0  0  0  0  0  0  0  0  0  0
   -2.0282   -3.8593   -0.2220 H   0  0  0  0  0  0  0  0  0  0  0  0
  2 10  1  0  0  0  0
  3  8  1  0  0  0  0
  4  3  1  0  0  0  0
  5 19  1  0  0  0  0
  5 17  1  0  0  0  0
  6  1  1  1  0  0  0
  6  5  1  0  0  0  0
  6  7  1  0  0  0  0
  7 20  1  0  0  0  0
  8  7  2  0  0  0  0
  8  9  1  0  0  0  0
  9 23  1  0  0  0  0
  9 22  1  0  0  0  0
 10  4  2  0  0  0  0
 11 16  1  0  0  0  0
 11 10  1  0  0  0  0
 12 11  2  0  0  0  0
 13 12  1  0  0  0  0
 13 14  2  0  0  0  0
 14 15  1  0  0  0  0
 15 27  1  0  0  0  0
 15 16  2  0  0  0  0
 16 28  1  0  0  0  0
 18  5  1  0  0  0  0
 21  9  1  0  0  0  0
 24 12  1  0  0  0  0
 25 13  1  0  0  0  0
 26 14  1  0  0  0  0
M  CHG  1   2  -1
M  END
