1,2,4
q = -2.0, confidence = 0.928

 31 33  0  0  0  0  0  0  0  0999 V2000
    1.4358   -0.9165   -0.0522 O   0  5  0  0  0  0  0  0  0  0  0  0
   -1.0915    1.7550   -0.0095 O   0  5  0  0  0  0  0  0  0  0  0  0
   -0.8091    5.3471    0.0719 O   0  0  0  0  0  0  0  0  0  0  0  0
    1.3870    1.8011    0.0014 N   0  0  0  0  0  2  0  0  0  0  0  0
    0.8296    3.0514    0.0090 N   0  0  0  0  0  0  0  0  0  0  0  0
    2.7389   -0.7753   -0.0488 C   0  0  0  0  0  0  0  0  0  0  0  0
    3.4982   -1.9958   -0.0943 C   0  0  0  0  0  0  0  0  0  0  0  0
    2.9239   -2.9325   -0.1412 H   0  0  0  0  0  0  0  0  0  0  0  0
    4.8723   -1.9842   -0.0873 C   0  0  0  0  0  0  0  0  0  0  0  0
    5.4327   -2.9318   -0.1239 H   0  0  0  0  0  0  0  0  0  0  0  0
    5.6100   -0.7569   -0.0351 C   0  0  0  0  0  0  0  0  0  0  0  0
    7.0312   -0.7591   -0.0242 C   0  0  0  0  0  3  0  0  0  0  0  0
    7.5521   -1.7292   -0.0558 H   0  0  0  0  0  0  0  0  0  0  0  0
    7.7528    0.4269    0.0249 C   0  0  0  0  0  0  0  0  0  0  0  0
    8.8529    0.4122    0.0331 H   0  0  0  0  0  0  0  0  0  0  0  0
    7.0553    1.6566    0.0646 C   0  0  0  0  0  0  0  0  0  0  0  0
    7.6148    2.6037    0.1045 H   0  0  0  0  0  0  0  0  0  0  0  0
    5.6636    1.6850    0.0542 C   0  0  0  0  0  0  0  0  0  0  0  0
    5.1629    2.6624    0.0875 H   0  0  0  0  0  0  0  0  0  0  0  0
    4.8922    0.4901    0.0042 C   0  0  0  0  0  0  0  0  0  0  0  0
    3.4337    0.4789   -0.0082 C   0  0  0  0  0  0  0  0  0  0  0  0
    2.7057    1.7030    0.0150 C   0  0  0  0  0  0  0  0  0  0  0  0
    3.2328    2.6702    0.0390 H   0  0  0  0  0  0  0  0  0  0  0  0
   -0.4833    2.9299    0.0019 C   0  0  0  0  0  0  0  0  0  0  0  0
   -1.3550    4.0951    0.0000 C   0  0  0  0  0  0  0  0  0  0  0  0
   -2.7358    4.1840   -0.0776 C   0  0  0  0  0  0  0  0  0  0  0  0
   -3.4202    3.3332   -0.1543 H   0  0  0  0  0  0  0  0  0  0  0  0
   -3.0467    5.5794   -0.0488 C   0  0  0  0  0  0  0  0  0  0  0  0
   -4.0381    6.0435   -0.0919 H   0  0  0  0  0  0  0  0  0  0  0  0
   -1.8373    6.2354    0.0426 C   0  0  0  0  0  0  0  0  0  0  0  0
   -1.5548    7.2918    0.0950 H   0  0  0  0  0  0  0  0  0  0  0  0
  1  6  1  0  0  0  0
  2 24  1  0  0  0  0
  4  5  1  0  0  0  0
  4 22  1  0  0  0  0
  6 21  1  0  0  0  0
  7  9  1  0  0  0  0
  7  6  2  0  0  0  0
  8  7  1  0  0  0  0
  9 11  2  0  0  0  0
 10  9  1  0  0  0  0
 11 12  1  0  0  0  0
 11 20  1  0  0  0  0
 12 14  1  0  0  0  0
 13 12  1  0  0  0  0
 14 15  1  0  0  0  0
 14 16  2  0  0  0  0
 16 17  1  0  0  0  0
 18 16  1  0  0  0  0
 18 19  1  0  0  0  0
 20 18  2  0  0  0  0
 21 20  1  0  0  0  0
 21 22  2  0  0  0  0
 22 23  1  0  0  0  0
 24  5  2  0  0  0  0
 25 24  1  0  0  0  0
 25  3  1  0  0  0  0
 26 28  1  0  0  0  0
 26 25  2  0  0  0  0
 27 26  1  0  0  0  0
 28 30  2  0  0  0  0
 29 28  1  0  0  0  0
 30  3  1  0  0  0  0
 30 31  1  0  0  0  0
M  CHG  2   1  -1   2  -1
M  END
