1,2,7
q = -2.0, confidence = 0.932

 45 47  0  0  1  0  0  0  0  0999 V2000
   -1.6625    0.3545   -0.0268 O   0  0  0  0  0  1  0  0  0  0  0  0
    1.9267    1.2880   -0.0720 O   0  5  0  0  0  0  0  0  0  0  0  0
    4.4945   -2.0338    0.0726 O   0  0  0  0  0  0  0  0  0  0  0  0
    3.4762   -1.9242    0.0267 H   0  0  0  0  0  0  0  0  0  0  0  0
   -3.3824   -1.2526    0.0974 N   0  0  0  0  0  0  0  0  0  0  0  0
   -3.5122   -2.6219    0.1052 N   0  0  0  0  0  0  0  0  0  0  0  0
    0.8057   -0.9526   -0.0423 N   0  0  0  0  0  2  0  0  0  0  0  0
    2.1763   -0.9936   -0.0441 N   0  0  0  0  0  0  0  0  0  0  0  0
   -4.4630    0.9670    0.2106 C   0  0  0  0  0  0  0  0  0  0  0  0
   -3.4827    1.4552    0.1856 H   0  0  0  0  0  0  0  0  0  0  0  0
   -5.6422    1.7222    0.2829 C   0  0  0  0  0  0  0  0  0  0  0  0
   -5.5681    2.8203    0.3149 H   0  0  0  0  0  0  0  0  0  0  0  0
   -6.8996    1.1012    0.3144 C   0  0  0  0  0  0  0  0  0  0  0  0
   -7.8185    1.7037    0.3708 H   0  0  0  0  0  0  0  0  0  0  0  0
   -6.9691   -0.3014    0.2734 C   0  0  0  0  0  0  0  0  0  0  0  0
   -7.9470   -0.8064    0.2978 H   0  0  0  0  0  0  0  0  0  0  0  0
   -5.8049   -1.0742    0.2007 C   0  0  0  0  0  0  0  0  0  0  0  0
   -5.8387   -2.1704    0.1692 H   0  0  0  0  0  0  0  0  0  0  0  0
   -4.5421   -0.4428    0.1684 C   0  0  0  0  0  0  0  0  0  0  0  0
   -2.0494   -0.8738    0.0154 C   0  0  1  0  0  3  0  0  0  0  0  0
   -1.2905   -2.0827   -0.0274 C   0  0  0  0  0  0  0  0  0  0  0  0
   -2.2877   -3.1279    0.0269 C   0  0  0  0  0  0  0  0  0  0  0  0
   -2.1328   -4.6177    0.0214 C   0  0  0  0  0  0  0  0  0  0  0  0
   -3.1265   -5.0766    0.1809 H   0  0  0  0  0  0  0  0  0  0  0  0
   -1.4488   -4.9708    0.8195 H   0  0  0  0  0  0  0  0  0  0  0  0
   -1.7341   -4.9927   -0.9446 H   0  0  0  0  0  0  0  0  0  0  0  0
    0.1357   -2.1061   -0.0984 C   0  0  0  0  0  0  0  0  0  0  0  0
    0.9099   -3.3983   -0.2290 C   0  0  0  0  0  0  0  0  0  0  0  0
    1.7545   -3.2123   -0.9225 H   0  0  0  0  0  0  0  0  0  0  0  0
    0.2612   -4.1524   -0.7093 H   0  0  0  0  0  0  0  0  0  0  0  0
    1.4573   -3.9449    1.0975 C   0  0  0  0  0  0  0  0  0  0  0  0
    2.1540   -3.2225    1.5645 H   0  0  0  0  0  0  0  0  0  0  0  0
    2.0107   -4.8900    0.9284 H   0  0  0  0  0  0  0  0  0  0  0  0
    0.6400   -4.1512    1.8172 H   0  0  0  0  0  0  0  0  0  0  0  0
    2.6946    0.2310   -0.0501 C   0  0  0  0  0  0  0  0  0  0  0  0
    4.1544    0.3719   -0.0173 C   0  0  0  0  0  0  0  0  0  0  0  0
    4.7439    1.6561   -0.0337 C   0  0  0  0  0  0  0  0  0  0  0  0
    4.0703    2.5242   -0.0800 H   0  0  0  0  0  0  0  0  0  0  0  0
    6.1307    1.8133    0.0086 C   0  0  0  0  0  0  0  0  0  0  0  0
    6.5766    2.8185   -0.0056 H   0  0  0  0  0  0  0  0  0  0  0  0
    6.9522    0.6691    0.0710 C   0  0  0  0  0  0  0  0  0  0  0  0
    8.0472    0.7805    0.1051 H   0  0  0  0  0  0  0  0  0  0  0  0
    6.3947   -0.6120    0.0912 C   0  0  0  0  0  0  0  0  0  0  0  0
    7.0235   -1.5128    0.1414 H   0  0  0  0  0  0  0  0  0  0  0  0
    4.9927   -0.7903    0.0486 C   0  0  0  0  0  0  0  0  0  0  0  0
  2 35  1  0  0  0  0
  4  3  1  0  0  0  0
  5  6  1  0  0  0  0
  5 19  1  0  0  0  0
  8  7  1  0  0  0  0
  9 11  1  0  0  0  0
 10  9  1  0  0  0  0
 11 13  2  0  0  0  0
 11 12  1  0  0  0  0
 13 14  1  0  0  0  0
 15 16  1  0  0  0  0
 15 13  1  0  0  0  0
 17 15  2  0  0  0  0
 18 17  1  0  0  0  0
 19 17  1  0  0  0  0
 19  9  2  0  0  0  0
 20  1  1  6  0  0  0
 20  5  1  0  0  0  0
 21 20  1  0  0  0  0
 21 22  1  0  0  0  0
 22  6  2  0  0  0  0
 23 22  1  0  0  0  0
 23 24  1  0  0  0  0
 23 25  1  0  0  0  0
 26 23  1  0  0  0  0
 27  7  1  0  0  0  0
 27 21  2  0  0  0  0
 28 27  1  0  0  0  0
 28 31  1  0  0  0  0
 29 28  1  0  0  0  0
 30 28  1  0  0  0  0
 31 32  1  0  0  0  0
 31 34  1  0  0  0  0
 33 31  1  0  0  0  0
 35  8  2  0  0  0  0
 35 36  1  0  0  0  0
 36 45  1  0  0  0  0
 37 36  2  0  0  0  0
 37 39  1  0  0  0  0
 38 37  1  0  0  0  0
 39 41  2  0  0  0  0
 40 39  1  0  0  0  0
 41 43  1  0  0  0  0
 41 42  1  0  0  0  0
 43 44  1  0  0  0  0
 45  3  1  0  0  0  0
 45 43  2  0  0  0  0
M  CHG  1   2  -1
M  END
