3,4,6
q = -2.0, confidence = 0.878

 32 33  0  0  1  0  0  0  0  0999 V2000
    6.5017    0.1349   -0.0952 O   0  0  0  0  0  0  0  0  0  0  0  0
    6.5916   -0.8201   -0.2711 H   0  0  0  0  0  0  0  0  0  0  0  0
    1.9769   -1.2804   -0.4931 O   0  5  0  0  0  0  0  0  0  0  0  0
   -1.7740   -1.2512   -0.0436 O   0  5  0  0  0  0  0  0  0  0  0  0
   -1.2727    1.0092   -0.0891 N   0  0  0  0  0  0  0  0  0  0  0  0
    0.0135    0.5480   -0.0708 N   0  0  0  0  0  2  0  0  0  0  0  0
    0.9799    1.4536   -0.0047 C   0  0  2  0  0  3  0  0  0  0  0  0
    2.7987   -0.3030   -0.2572 C   0  0  0  0  0  0  0  0  0  0  0  0
    4.1975   -0.5822   -0.2908 C   0  0  0  0  0  0  0  0  0  0  0  0
    4.4853   -1.6277   -0.4889 H   0  0  0  0  0  0  0  0  0  0  0  0
    4.7583    1.7386    0.1814 C   0  0  0  0  0  0  0  0  0  0  0  0
    5.5223    2.5090    0.3570 H   0  0  0  0  0  0  0  0  0  0  0  0
   -3.5811    0.3027   -0.0557 C   0  0  0  0  0  0  0  0  0  0  0  0
    2.3818    1.0607   -0.0034 C   0  0  0  0  0  0  0  0  0  0  0  0
    3.3966    2.0336    0.2054 C   0  0  0  0  0  0  0  0  0  0  0  0
    3.0997    3.0730    0.4054 H   0  0  0  0  0  0  0  0  0  0  0  0
   -4.0589    1.6307   -0.0963 C   0  0  0  0  0  0  0  0  0  0  0  0
   -3.3213    2.4451   -0.1283 H   0  0  0  0  0  0  0  0  0  0  0  0
   -4.5092   -0.7594   -0.0130 C   0  0  0  0  0  0  0  0  0  0  0  0
   -4.1104   -1.7838    0.0180 H   0  0  0  0  0  0  0  0  0  0  0  0
    5.1579    0.4066   -0.0739 C   0  0  0  0  0  0  0  0  0  0  0  0
    0.6331    2.9226    0.0799 C   0  0  0  0  0  0  0  0  0  0  0  0
   -0.4558    3.0389   -0.0530 H   0  0  0  0  0  0  0  0  0  0  0  0
    1.1757    3.5067   -0.6903 H   0  0  0  0  0  0  0  0  0  0  0  0
    0.9174    3.3382    1.0697 H   0  0  0  0  0  0  0  0  0  0  0  0
   -6.3564    0.8251   -0.0516 C   0  0  0  0  0  0  0  0  0  0  0  0
   -7.4389    1.0298   -0.0497 H   0  0  0  0  0  0  0  0  0  0  0  0
   -2.1244   -0.0087   -0.0588 C   0  0  0  0  0  0  0  0  0  0  0  0
   -5.4356    1.8880   -0.0948 C   0  0  0  0  0  0  0  0  0  0  0  0
   -5.7980    2.9281   -0.1267 H   0  0  0  0  0  0  0  0  0  0  0  0
   -5.8866   -0.4983   -0.0103 C   0  0  0  0  0  0  0  0  0  0  0  0
   -6.6021   -1.3354    0.0241 H   0  0  0  0  0  0  0  0  0  0  0  0
  1 21  1  0  0  0  0
  2  1  1  0  0  0  0
  3  8  1  0  0  0  0
  5  6  1  0  0  0  0
  5 28  2  0  0  0  0
  7  6  1  1  0  0  0
  7 14  1  0  0  0  0
  7 22  1  0  0  0  0
  8 14  1  0  0  0  0
  9  8  2  0  0  0  0
  9 21  1  0  0  0  0
 10  9  1  0  0  0  0
 11 15  1  0  0  0  0
 11 12  1  0  0  0  0
 13 19  1  0  0  0  0
 14 15  2  0  0  0  0
 15 16  1  0  0  0  0
 17 29  1  0  0  0  0
 17 13  2  0  0  0  0
 18 17  1  0  0  0  0
 19 31  2  0  0  0  0
 19 20  1  0  0  0  0
 21 11  2  0  0  0  0
 22 25  1  0  0  0  0
 23 22  1  0  0  0  0
 24 22  1  0  0  0  0
 26 27  1  0  0  0  0
 26 31  1  0  0  0  0
 28 13  1  0  0  0  0
 28  4  1  0  0  0  0
 29 26  2  0  0  0  0
 30 29  1  0  0  0  0
 31 32  1  0  0  0  0
M  CHG  2   3  -1   4  -1
M  END
