1,21,24
q = -1.0, confidence = 0.034

 34 35  0  0  1  0  0  0  0  0999 V2000
    0.8514   -2.1293    0.0789 O   0  0  0  0  0  1  0  0  0  0  0  0
    1.7460   -1.4235   -0.3916 C   0  0  1  0  0  3  0  0  0  0  0  0
    2.9820   -1.8525   -0.5618 O   0  0  0  0  0  0  0  0  0  0  0  0
    3.2427   -3.2182   -0.1678 C   0  0  0  0  0  0  0  0  0  0  0  0
    3.0390   -3.3456    0.9127 H   0  0  0  0  0  0  0  0  0  0  0  0
    4.3080   -3.3941   -0.3924 H   0  0  0  0  0  0  0  0  0  0  0  0
    2.5948   -3.9088   -0.7414 H   0  0  0  0  0  0  0  0  0  0  0  0
    1.5095    0.0088   -0.8530 C   0  0  2  0  0  0  0  0  0  0  0  0
    1.6103   -0.0323   -1.9619 H   0  0  0  0  0  0  0  0  0  0  0  0
    2.5511    0.9620   -0.2884 C   0  0  0  0  0  0  0  0  0  0  0  0
    3.5245    1.5373   -1.1228 C   0  0  0  0  0  0  0  0  0  0  0  0
    3.5282    1.3035   -2.1991 H   0  0  0  0  0  0  0  0  0  0  0  0
    4.4892    2.4053   -0.5868 C   0  0  0  0  0  0  0  0  0  0  0  0
    5.2467    2.8555   -1.2460 H   0  0  0  0  0  0  0  0  0  0  0  0
    4.4820    2.7005    0.7847 C   0  0  0  0  0  0  0  0  0  0  0  0
    5.2366    3.3825    1.2050 H   0  0  0  0  0  0  0  0  0  0  0  0
    3.5075    2.1275    1.6200 C   0  0  0  0  0  0  0  0  0  0  0  0
    3.4980    2.3581    2.6960 H   0  0  0  0  0  0  0  0  0  0  0  0
    2.5432    1.2601    1.0898 C   0  0  0  0  0  0  0  0  0  0  0  0
    1.7679    0.8133    1.7357 H   0  0  0  0  0  0  0  0  0  0  0  0
    0.1210    0.3420   -0.5221 N   0  0  0  0  0  2  0  0  0  0  0  0
   -0.2636    1.5764   -0.6351 C   0  0  0  0  0  3  0  0  0  0  0  0
    0.4790    2.3461   -0.9333 H   0  0  0  0  0  0  0  0  0  0  0  0
   -2.5157   -0.1140    0.0358 O   0  5  0  0  0  0  0  0  0  0  0  0
   -2.6926    1.1914   -0.0715 C   0  0  0  0  0  0  0  0  0  0  0  0
   -1.6031    2.0650   -0.3934 C   0  0  0  0  0  0  0  0  0  0  0  0
   -1.8509    3.4563   -0.5031 C   0  0  0  0  0  0  0  0  0  0  0  0
   -1.0086    4.1210   -0.7527 H   0  0  0  0  0  0  0  0  0  0  0  0
   -3.1253    3.9838   -0.2985 C   0  0  0  0  0  0  0  0  0  0  0  0
   -3.2987    5.0661   -0.3832 H   0  0  0  0  0  0  0  0  0  0  0  0
   -4.1900    3.1137    0.0164 C   0  0  0  0  0  0  0  0  0  0  0  0
   -5.1998    3.5209    0.1783 H   0  0  0  0  0  0  0  0  0  0  0  0
   -3.9822    1.7368    0.1264 C   0  0  0  0  0  0  0  0  0  0  0  0
   -4.8004    1.0449    0.3703 H   0  0  0  0  0  0  0  0  0  0  0  0
  2  1  1  6  0  0  0
  3  2  1  0  0  0  0
  3  4  1  0  0  0  0
  4  5  1  0  0  0  0
  6  4  1  0  0  0  0
  7  4  1  0  0  0  0
  8  9  1  6  0  0  0
  8 21  1  0  0  0  0
  8  2  1  0  0  0  0
  8 10  1  0  0  0  0
 10 19  1  0  0  0  0
 11 13  1  0  0  0  0
 11 10  2  0  0  0  0
 12 11  1  0  0  0  0
 13 15  2  0  0  0  0
 14 13  1  0  0  0  0
 15 16  1  0  0  0  0
 15 17  1  0  0  0  0
 17 18  1  0  0  0  0
 19 17  2  0  0  0  0
 19 20  1  0  0  0  0
 22 21  1  0  0  0  0
 22 26  1  0  0  0  0
 23 22  1  0  0  0  0
 25 24  1  0  0  0  0
 25 33  1  0  0  0  0
 26 25  2  0  0  0  0
 27 26  1  0  0  0  0
 27 29  2  0  0  0  0
 28 27  1  0  0  0  0
 29 31  1  0  0  0  0
 30 29  1  0  0  0  0
 31 33  2  0  0  0  0
 31 32  1  0  0  0  0
 33 34  1  0  0  0  0
M  CHG  1  24  -1
M  END
