1,2,4
q = -2.0, confidence = 0.836

 34 35  0  0  0  0  0  0  0  0999 V2000
   -1.6729   -0.5131    0.1931 O   0  5  0  0  0  0  0  0  0  0  0  0
    2.0750   -0.9358   -0.1904 O   0  5  0  0  0  0  0  0  0  0  0  0
   -4.2698   -0.7334    0.2728 O   0  0  0  0  0  0  0  0  0  0  0  0
    0.5461    1.0414   -0.1200 N   0  0  0  0  0  2  0  0  0  0  0  0
    1.8712    1.3655   -0.0963 N   0  0  0  0  0  0  0  0  0  0  0  0
    6.8950    0.5389   -0.1940 N   0  0  0  0  0  0  0  0  0  0  0  0
   -2.3646    0.6134    0.0450 C   0  0  0  0  0  0  0  0  0  0  0  0
   -3.7913    0.5201    0.0888 C   0  0  0  0  0  0  0  0  0  0  0  0
   -4.5598    1.6898   -0.0313 C   0  0  0  0  0  0  0  0  0  0  0  0
   -5.6562    1.6312   -0.0079 H   0  0  0  0  0  0  0  0  0  0  0  0
   -3.9403    2.9494   -0.1778 C   0  0  0  0  0  0  0  0  0  0  0  0
   -4.5659    3.8489   -0.2700 H   0  0  0  0  0  0  0  0  0  0  0  0
   -2.5545    3.0529   -0.2080 C   0  0  0  0  0  0  0  0  0  0  0  0
   -2.0645    4.0312   -0.3227 H   0  0  0  0  0  0  0  0  0  0  0  0
   -1.7447    1.8873   -0.1036 C   0  0  0  0  0  0  0  0  0  0  0  0
   -0.3117    2.0343   -0.1196 C   0  0  0  0  0  3  0  0  0  0  0  0
    0.1123    3.0562   -0.1351 H   0  0  0  0  0  0  0  0  0  0  0  0
    2.6037    0.2719   -0.1543 C   0  0  0  0  0  0  0  0  0  0  0  0
    4.0771    0.3718   -0.1695 C   0  0  0  0  0  0  0  0  0  0  0  0
    4.7283    1.6209   -0.1122 C   0  0  0  0  0  0  0  0  0  0  0  0
    4.1356    2.5447   -0.0575 H   0  0  0  0  0  0  0  0  0  0  0  0
    6.1288    1.6423   -0.1266 C   0  0  0  0  0  0  0  0  0  0  0  0
    6.6643    2.6076   -0.0817 H   0  0  0  0  0  0  0  0  0  0  0  0
    6.2652   -0.6457   -0.2504 C   0  0  0  0  0  0  0  0  0  0  0  0
    6.9097   -1.5413   -0.3068 H   0  0  0  0  0  0  0  0  0  0  0  0
    4.8697   -0.7901   -0.2408 C   0  0  0  0  0  0  0  0  0  0  0  0
    4.3918   -1.7787   -0.2884 H   0  0  0  0  0  0  0  0  0  0  0  0
   -5.6784   -0.9700    0.2068 C   0  0  0  0  0  0  0  0  0  0  0  0
   -6.2245   -0.2231    0.8269 H   0  0  0  0  0  0  0  0  0  0  0  0
   -5.8126   -1.9563    0.6934 H   0  0  0  0  0  0  0  0  0  0  0  0
   -6.2003   -1.0057   -1.2233 C   0  0  0  0  0  0  0  0  0  0  0  0
   -7.2779   -1.2659   -1.2286 H   0  0  0  0  0  0  0  0  0  0  0  0
   -5.6548   -1.7686   -1.8127 H   0  0  0  0  0  0  0  0  0  0  0  0
   -6.0814   -0.0295   -1.7334 H   0  0  0  0  0  0  0  0  0  0  0  0
  2 18  1  0  0  0  0
  4 16  1  0  0  0  0
  4  5  1  0  0  0  0
  6 22  1  0  0  0  0
  7  8  1  0  0  0  0
  7  1  1  0  0  0  0
  8  3  1  0  0  0  0
  9 10  1  0  0  0  0
  9  8  2  0  0  0  0
 11  9  1  0  0  0  0
 12 11  1  0  0  0  0
 13 11  2  0  0  0  0
 13 15  1  0  0  0  0
 14 13  1  0  0  0  0
 15  7  2  0  0  0  0
 16 15  1  0  0  0  0
 17 16  1  0  0  0  0
 18  5  2  0  0  0  0
 19 18  1  0  0  0  0
 19 20  1  0  0  0  0
 20 21  1  0  0  0  0
 22 20  2  0  0  0  0
 22 23  1  0  0  0  0
 24 26  1  0  0  0  0
 24  6  2  0  0  0  0
 25 24  1  0  0  0  0
 26 19  2  0  0  0  0
 27 26  1  0  0  0  0
 28  3  1  0  0  0  0
 28 30  1  0  0  0  0
 28 29  1  0  0  0  0
 31 28  1  0  0  0  0
 32 31  1  0  0  0  0
 33 31  1  0  0  0  0
 34 31  1  0  0  0  0
M  CHG  2   1  -1   2  -1
M  END
