23,24,25
q = -2.0, confidence = 0.652

 25 25  0  0  1  0  0  0  0  0999 V2000
    2.1400    3.7758   -0.2779 C   0  0  0  0  0  0  0  0  0  0  0  0
    2.6175    3.6994   -1.2772 H   0  0  0  0  0  0  0  0  0  0  0  0
    2.9439    3.6371    0.4755 H   0  0  0  0  0  0  0  0  0  0  0  0
    1.7159    4.7902   -0.1641 H   0  0  0  0  0  0  0  0  0  0  0  0
    1.0929    2.6979   -0.1255 C   0  0  2  0  0  3  0  0  0  0  0  0
   -0.2397    3.0193    0.1307 C   0  0  0  0  0  0  0  0  0  0  0  0
   -0.4860    4.0802    0.2702 H   0  0  0  0  0  0  0  0  0  0  0  0
   -1.3188    2.0949    0.2178 C   0  0  0  0  0  0  0  0  0  0  0  0
   -2.6631    2.6902    0.5720 C   0  0  0  0  0  0  0  0  0  0  0  0
   -3.2334    2.0262    1.2497 H   0  0  0  0  0  0  0  0  0  0  0  0
   -3.2917    2.8684   -0.3256 H   0  0  0  0  0  0  0  0  0  0  0  0
   -2.5149    3.6673    1.0679 H   0  0  0  0  0  0  0  0  0  0  0  0
   -2.1728   -0.1966   -0.0650 C   0  0  0  0  0  0  0  0  0  0  0  0
   -3.5549   -0.0318   -0.3132 C   0  0  0  0  0  0  0  0  0  0  0  0
   -3.9810    0.9542   -0.5228 H   0  0  0  0  0  0  0  0  0  0  0  0
   -4.4052   -1.1477   -0.3355 C   0  0  0  0  0  0  0  0  0  0  0  0
   -5.4779   -1.0037   -0.5321 H   0  0  0  0  0  0  0  0  0  0  0  0
   -3.8908   -2.4398   -0.1177 C   0  0  0  0  0  0  0  0  0  0  0  0
   -4.5663   -3.3093   -0.1276 H   0  0  0  0  0  0  0  0  0  0  0  0
   -2.5195   -2.6316    0.0822 C   0  0  0  0  0  0  0  0  0  0  0  0
   -2.0884   -3.6347    0.2163 H   0  0  0  0  0  0  0  0  0  0  0  0
   -1.6458   -1.5201    0.0689 C   0  0  0  0  0  0  0  0  0  0  0  0
   -1.1494    0.7792    0.0202 N   0  0  0  0  0  2  0  0  0  0  0  0
    1.5467    1.4872   -0.2388 O   0  0  0  0  0  1  0  0  0  0  0  0
   -0.3324   -1.6485    0.1477 O   0  5  0  0  0  0  0  0  0  0  0  0
  1  4  1  0  0  0  0
  1  5  1  0  0  0  0
  1  3  1  0  0  0  0
  2  1  1  0  0  0  0
  5 24  1  1  0  0  0
  5  6  1  0  0  0  0
  6  8  2  0  0  0  0
  6  7  1  0  0  0  0
  8  9  1  0  0  0  0
  9 12  1  0  0  0  0
  9 10  1  0  0  0  0
 11  9  1  0  0  0  0
 13 23  1  0  0  0  0
 13 22  1  0  0  0  0
 14 13  2  0  0  0  0
 15 14  1  0  0  0  0
 16 14  1  0  0  0  0
 16 18  2  0  0  0  0
 17 16  1  0  0  0  0
 18 20  1  0  0  0  0
 19 18  1  0  0  0  0
 20 21  1  0  0  0  0
 22 20  2  0  0  0  0
 22 25  1  0  0  0  0
 23  8  1  0  0  0  0
M  CHG  1  25  -1
M  END
