2,4,5
q = -2.0, confidence = 0.894

 29 30  0  0  0  0  0  0  0  0999 V2000
   -4.6785   -0.8240    0.2534 Br  0  0  0  0  0  0  0  0  0  0  0  0
    0.5282    1.1565   -0.1261 N   0  0  0  0  0  2  0  0  0  0  0  0
    1.8651    1.3512   -0.0319 N   0  0  0  0  0  0  0  0  0  0  0  0
   -1.7044   -0.2807    0.1801 O   0  5  0  0  0  0  0  0  0  0  0  0
    1.8781   -0.9259   -0.3384 O   0  5  0  0  0  0  0  0  0  0  0  0
    4.0895    2.6041    0.2739 O   0  0  0  0  0  0  0  0  0  0  0  0
    3.0903    2.4252    0.1927 H   0  0  0  0  0  0  0  0  0  0  0  0
   -1.7071    2.1106   -0.1162 C   0  0  0  0  0  0  0  0  0  0  0  0
   -2.3736    0.8483    0.0211 C   0  0  0  0  0  0  0  0  0  0  0  0
   -3.7941    0.8422    0.0423 C   0  0  0  0  0  0  0  0  0  0  0  0
   -4.5313    2.0248   -0.0795 C   0  0  0  0  0  0  0  0  0  0  0  0
   -5.6294    1.9754   -0.0656 H   0  0  0  0  0  0  0  0  0  0  0  0
   -3.8671    3.2588   -0.2162 C   0  0  0  0  0  0  0  0  0  0  0  0
   -4.4520    4.1847   -0.3120 H   0  0  0  0  0  0  0  0  0  0  0  0
   -2.4732    3.2984   -0.2245 C   0  0  0  0  0  0  0  0  0  0  0  0
   -1.9444    4.2589   -0.3223 H   0  0  0  0  0  0  0  0  0  0  0  0
   -0.2671    2.1949   -0.0816 C   0  0  0  0  0  3  0  0  0  0  0  0
    0.1987    3.1963   -0.0118 H   0  0  0  0  0  0  0  0  0  0  0  0
    2.5228    0.1950   -0.1633 C   0  0  0  0  0  0  0  0  0  0  0  0
    3.9823    0.2011   -0.0910 C   0  0  0  0  0  0  0  0  0  0  0  0
    4.6988    1.4251    0.1299 C   0  0  0  0  0  0  0  0  0  0  0  0
    6.1117    1.3771    0.2001 C   0  0  0  0  0  0  0  0  0  0  0  0
    6.6468    2.3223    0.3704 H   0  0  0  0  0  0  0  0  0  0  0  0
    6.7910    0.1671    0.0554 C   0  0  0  0  0  0  0  0  0  0  0  0
    7.8905    0.1577    0.1131 H   0  0  0  0  0  0  0  0  0  0  0  0
    6.0895   -1.0385   -0.1642 C   0  0  0  0  0  0  0  0  0  0  0  0
    6.6348   -1.9863   -0.2797 H   0  0  0  0  0  0  0  0  0  0  0  0
    4.6981   -1.0119   -0.2354 C   0  0  0  0  0  0  0  0  0  0  0  0
    4.1165   -1.9289   -0.4094 H   0  0  0  0  0  0  0  0  0  0  0  0
  2 17  1  0  0  0  0
  2  3  1  0  0  0  0
  5 19  1  0  0  0  0
  7  6  1  0  0  0  0
  8 17  1  0  0  0  0
  8  9  1  0  0  0  0
  9 10  2  0  0  0  0
  9  4  1  0  0  0  0
 10  1  1  0  0  0  0
 11 12  1  0  0  0  0
 11 10  1  0  0  0  0
 13 11  2  0  0  0  0
 14 13  1  0  0  0  0
 15 13  1  0  0  0  0
 15  8  2  0  0  0  0
 16 15  1  0  0  0  0
 17 18  1  0  0  0  0
 19 20  1  0  0  0  0
 19  3  2  0  0  0  0
 20 21  1  0  0  0  0
 21 22  2  0  0  0  0
 21  6  1  0  0  0  0
 22 23  1  0  0  0  0
 24 25  1  0  0  0  0
 24 22  1  0  0  0  0
 26 24  2  0  0  0  0
 27 26  1  0  0  0  0
 28 26  1  0  0  0  0
 28 20  2  0  0  0  0
 29 28  1  0  0  0  0
M  CHG  2   4  -1   5  -1
M  END
