1,3,4
q = -2.0, confidence = 0.904

 35 36  0  0  0  0  0  0  0  0999 V2000
   -0.4362   -1.6624    0.0927 N   0  0  0  0  0  2  0  0  0  0  0  0
    0.7813   -2.1763    0.4313 N   0  0  0  0  0  0  0  0  0  0  0  0
   -2.1570    0.2512   -0.5740 O   0  5  0  0  0  0  0  0  0  0  0  0
    1.4385   -0.4812   -0.9642 O   0  5  0  0  0  0  0  0  0  0  0  0
   -6.8299   -0.5527    0.1322 O   0  0  0  0  0  0  0  0  0  0  0  0
   -2.8508   -1.8178    0.4048 C   0  0  0  0  0  0  0  0  0  0  0  0
   -3.1353   -0.5346   -0.1720 C   0  0  0  0  0  0  0  0  0  0  0  0
   -4.4720   -0.0856   -0.2666 C   0  0  0  0  0  0  0  0  0  0  0  0
   -4.6399    0.9034   -0.7093 H   0  0  0  0  0  0  0  0  0  0  0  0
   -5.5213   -0.8983    0.1943 C   0  0  0  0  0  0  0  0  0  0  0  0
   -5.2508   -2.1691    0.7709 C   0  0  0  0  0  0  0  0  0  0  0  0
   -6.0961   -2.7760    1.1221 H   0  0  0  0  0  0  0  0  0  0  0  0
   -3.9389   -2.6039    0.8744 C   0  0  0  0  0  0  0  0  0  0  0  0
   -3.7222   -3.5859    1.3232 H   0  0  0  0  0  0  0  0  0  0  0  0
   -7.1760    0.6992   -0.4364 C   0  0  0  0  0  0  0  0  0  0  0  0
   -6.7331    1.5460    0.1331 H   0  0  0  0  0  0  0  0  0  0  0  0
   -8.2783    0.7684   -0.3896 H   0  0  0  0  0  0  0  0  0  0  0  0
   -6.8503    0.7725   -1.4973 H   0  0  0  0  0  0  0  0  0  0  0  0
   -1.5035   -2.2657    0.5760 C   0  0  0  0  0  3  0  0  0  0  0  0
   -1.3147   -3.1796    1.1694 H   0  0  0  0  0  0  0  0  0  0  0  0
    1.7307   -1.4913   -0.1825 C   0  0  0  0  0  0  0  0  0  0  0  0
    3.1502   -1.8481    0.0111 C   0  0  0  0  0  0  0  0  0  0  0  0
    3.5164   -2.9358    0.8349 C   0  0  0  0  0  0  0  0  0  0  0  0
    2.7248   -3.5189    1.3256 H   0  0  0  0  0  0  0  0  0  0  0  0
    4.8692   -3.2410    1.0072 C   0  0  0  0  0  0  0  0  0  0  0  0
    5.1637   -4.0855    1.6488 H   0  0  0  0  0  0  0  0  0  0  0  0
    5.8584   -2.4745    0.3659 C   0  0  0  0  0  0  0  0  0  0  0  0
    6.9217   -2.7242    0.5107 H   0  0  0  0  0  0  0  0  0  0  0  0
    5.5128   -1.3877   -0.4619 C   0  0  0  0  0  0  0  0  0  0  0  0
    4.1479   -1.0860   -0.6273 C   0  0  0  0  0  0  0  0  0  0  0  0
    3.8332   -0.2438   -1.2618 H   0  0  0  0  0  0  0  0  0  0  0  0
    6.5664   -0.5723   -1.1697 C   0  0  0  0  0  0  0  0  0  0  0  0
    7.5837   -0.8091   -0.8022 H   0  0  0  0  0  0  0  0  0  0  0  0
    6.3950    0.5150   -1.0346 H   0  0  0  0  0  0  0  0  0  0  0  0
    6.5514   -0.7649   -2.2634 H   0  0  0  0  0  0  0  0  0  0  0  0
  1  2  1  0  0  0  0
  1 19  1  0  0  0  0
  3  7  1  0  0  0  0
  4 21  1  0  0  0  0
  5 10  1  0  0  0  0
  6 19  1  0  0  0  0
  6 13  1  0  0  0  0
  7  6  2  0  0  0  0
  8  7  1  0  0  0  0
  8 10  2  0  0  0  0
  9  8  1  0  0  0  0
 10 11  1  0  0  0  0
 11 13  2  0  0  0  0
 11 12  1  0  0  0  0
 13 14  1  0  0  0  0
 15 17  1  0  0  0  0
 15  5  1  0  0  0  0
 15 16  1  0  0  0  0
 18 15  1  0  0  0  0
 19 20  1  0  0  0  0
 21 22  1  0  0  0  0
 21  2  2  0  0  0  0
 22 23  1  0  0  0  0
 23 25  2  0  0  0  0
 23 24  1  0  0  0  0
 25 26  1  0  0  0  0
 27 28  1  0  0  0  0
 27 25  1  0  0  0  0
 29 27  2  0  0  0  0
 30 29  1  0  0  0  0
 30 22  2  0  0  0  0
 31 30  1  0  0  0  0
 32 34  1  0  0  0  0
 32 33  1  0  0  0  0
 32 29  1  0  0  0  0
 35 32  1  0  0  0  0
M  CHG  2   3  -1   4  -1
M  END
