1,2,3
q = -2.0, confidence = 0.854

 31 32  0  0  0  0  0  0  0  0999 V2000
   -1.1378   -1.6187    0.3239 N   0  0  0  0  0  0  0  0  0  0  0  0
   -1.2317    0.7682   -1.2983 O   0  5  0  0  0  0  0  0  0  0  0  0
    0.8087   -1.0795   -1.3651 O   0  5  0  0  0  0  0  0  0  0  0  0
    1.1749   -3.2382   -1.9149 O   0  0  0  0  0  0  0  0  0  0  0  0
   -3.1574   -0.4268   -0.5866 C   0  0  0  0  0  0  0  0  0  0  0  0
   -2.5140    0.7598   -1.0154 C   0  0  0  0  0  0  0  0  0  0  0  0
   -3.3015    1.9523   -1.1728 C   0  0  0  0  0  0  0  0  0  0  0  0
   -2.7960    2.8590   -1.5380 H   0  0  0  0  0  0  0  0  0  0  0  0
   -4.6450    1.9616   -0.8575 C   0  0  0  0  0  0  0  0  0  0  0  0
   -5.2335    2.8872   -0.9669 H   0  0  0  0  0  0  0  0  0  0  0  0
   -5.3021    0.7941   -0.3637 C   0  0  0  0  0  0  0  0  0  0  0  0
   -6.6800    0.8050   -0.0117 C   0  0  0  0  0  0  0  0  0  0  0  0
   -7.2374    1.7497   -0.1231 H   0  0  0  0  0  0  0  0  0  0  0  0
   -7.3172   -0.3342    0.4638 C   0  0  0  0  0  0  0  0  0  0  0  0
   -8.3840   -0.3066    0.7345 H   0  0  0  0  0  0  0  0  0  0  0  0
   -6.5758   -1.5370    0.6027 C   0  0  0  0  0  0  0  0  0  0  0  0
   -7.0715   -2.4434    0.9855 H   0  0  0  0  0  0  0  0  0  0  0  0
   -5.2295   -1.5828    0.2669 C   0  0  0  0  0  0  0  0  0  0  0  0
   -4.6786   -2.5266    0.3933 H   0  0  0  0  0  0  0  0  0  0  0  0
   -4.5376   -0.4304   -0.2259 C   0  0  0  0  0  0  0  0  0  0  0  0
   -2.2865   -1.6414   -0.6344 C   0  0  0  0  0  0  0  0  0  0  0  0
   -1.8271   -1.7062   -1.6433 H   0  0  0  0  0  0  0  0  0  0  0  0
   -2.8577   -2.5783   -0.4593 H   0  0  0  0  0  0  0  0  0  0  0  0
    0.6588   -2.3694   -1.2156 C   0  0  0  0  0  0  0  0  0  0  0  0
   -0.2297   -2.7424   -0.0112 C   0  0  0  0  0  0  0  0  0  0  0  0
   -0.7994   -3.6737   -0.2213 H   0  0  0  0  0  0  0  0  0  0  0  0
    0.4338   -2.9129    0.8557 H   0  0  0  0  0  0  0  0  0  0  0  0
   -1.6029   -1.6690    1.7198 C   0  0  0  0  0  0  0  0  0  0  0  0
   -2.1429   -2.6242    1.9125 H   0  0  0  0  0  0  0  0  0  0  0  0
   -2.2698   -0.8085    1.9060 H   0  0  0  0  0  0  0  0  0  0  0  0
   -0.7210   -1.5836    2.3793 H   0  0  0  0  0  0  0  0  0  0  0  0
  1 28  1  0  0  0  0
  2  6  1  0  0  0  0
  3 24  1  0  0  0  0
  4 24  2  0  0  0  0
  5 20  1  0  0  0  0
  6  5  2  0  0  0  0
  7  6  1  0  0  0  0
  7  9  2  0  0  0  0
  8  7  1  0  0  0  0
  9 11  1  0  0  0  0
 10  9  1  0  0  0  0
 11 20  2  0  0  0  0
 11 12  1  0  0  0  0
 12 14  2  0  0  0  0
 13 12  1  0  0  0  0
 14 16  1  0  0  0  0
 14 15  1  0  0  0  0
 16 17  1  0  0  0  0
 18 19  1  0  0  0  0
 18 16  2  0  0  0  0
 20 18  1  0  0  0  0
 21  5  1  0  0  0  0
 21 23  1  0  0  0  0
 21  1  1  0  0  0  0
 22 21  1  0  0  0  0
 24 25  1  0  0  0  0
 25  1  1  0  0  0  0
 25 27  1  0  0  0  0
 26 25  1  0  0  0  0
 28 30  1  0  0  0  0
 28 29  1  0  0  0  0
 28 31  1  0  0  0  0
M  CHG  2   2  -1   3  -1
M  END
