1,5,6
q = -2.0, confidence = 0.878

 40 41  0  0  0  0  0  0  0  0999 V2000
    0.7848   -0.7304   -0.0704 N   0  0  0  0  0  2  0  0  0  0  0  0
   -0.4644   -1.2244    0.1157 N   0  0  0  0  0  0  0  0  0  0  0  0
   -6.9430   -1.4278    0.1205 N   0  0  0  0  0  0  0  0  0  0  0  0
    6.4348   -2.8190    0.4147 O   0  0  0  0  0  0  0  0  0  0  0  0
    2.6468    1.1713   -0.1984 O   0  5  0  0  0  0  0  0  0  0  0  0
   -0.9855    0.8693   -0.6675 O   0  5  0  0  0  0  0  0  0  0  0  0
    3.1852   -1.1480    0.1080 C   0  0  0  0  0  0  0  0  0  0  0  0
    3.5639    0.2221   -0.0839 C   0  0  0  0  0  0  0  0  0  0  0  0
    4.9360    0.5480   -0.0990 C   0  0  0  0  0  0  0  0  0  0  0  0
    5.2153    1.6018   -0.2402 H   0  0  0  0  0  0  0  0  0  0  0  0
    5.9177   -0.4379    0.0598 C   0  0  0  0  0  0  0  0  0  0  0  0
    6.9752   -0.1418    0.0346 H   0  0  0  0  0  0  0  0  0  0  0  0
    5.5490   -1.7908    0.2505 C   0  0  0  0  0  0  0  0  0  0  0  0
    4.1893   -2.1288    0.2806 C   0  0  0  0  0  0  0  0  0  0  0  0
    3.9126   -3.1822    0.4352 H   0  0  0  0  0  0  0  0  0  0  0  0
    7.8142   -2.5210    0.3869 C   0  0  0  0  0  0  0  0  0  0  0  0
    8.1291   -2.0810   -0.5873 H   0  0  0  0  0  0  0  0  0  0  0  0
    8.3466   -3.4796    0.5328 H   0  0  0  0  0  0  0  0  0  0  0  0
    8.1092   -1.8199    1.2013 H   0  0  0  0  0  0  0  0  0  0  0  0
    1.8002   -1.5248    0.1906 C   0  0  0  0  0  3  0  0  0  0  0  0
    1.5439   -2.5531    0.5044 H   0  0  0  0  0  0  0  0  0  0  0  0
   -1.3593   -0.3102   -0.2350 C   0  0  0  0  0  0  0  0  0  0  0  0
   -2.7923   -0.6056   -0.1398 C   0  0  0  0  0  0  0  0  0  0  0  0
   -3.7486    0.3627   -0.5153 C   0  0  0  0  0  0  0  0  0  0  0  0
   -3.3913    1.3360   -0.8818 H   0  0  0  0  0  0  0  0  0  0  0  0
   -5.1150    0.1009   -0.4327 C   0  0  0  0  0  0  0  0  0  0  0  0
   -5.8225    0.8819   -0.7389 H   0  0  0  0  0  0  0  0  0  0  0  0
   -5.5915   -1.1586    0.0361 C   0  0  0  0  0  0  0  0  0  0  0  0
   -4.6186   -2.1321    0.4145 C   0  0  0  0  0  0  0  0  0  0  0  0
   -4.9345   -3.1170    0.7811 H   0  0  0  0  0  0  0  0  0  0  0  0
   -3.2571   -1.8567    0.3257 C   0  0  0  0  0  0  0  0  0  0  0  0
   -2.5155   -2.6137    0.6185 H   0  0  0  0  0  0  0  0  0  0  0  0
   -7.3985   -2.7197    0.5929 C   0  0  0  0  0  0  0  0  0  0  0  0
   -7.0401   -3.5536   -0.0523 H   0  0  0  0  0  0  0  0  0  0  0  0
   -8.5031   -2.7417    0.5910 H   0  0  0  0  0  0  0  0  0  0  0  0
   -7.0561   -2.9307    1.6312 H   0  0  0  0  0  0  0  0  0  0  0  0
   -7.9087   -0.4249   -0.2800 C   0  0  0  0  0  0  0  0  0  0  0  0
   -7.8216    0.5059    0.3252 H   0  0  0  0  0  0  0  0  0  0  0  0
   -8.9299   -0.8232   -0.1414 H   0  0  0  0  0  0  0  0  0  0  0  0
   -7.7973   -0.1379   -1.3503 H   0  0  0  0  0  0  0  0  0  0  0  0
  1  2  1  0  0  0  0
  1 20  1  0  0  0  0
  3 33  1  0  0  0  0
  5  8  1  0  0  0  0
  6 22  1  0  0  0  0
  7 20  1  0  0  0  0
  7 14  1  0  0  0  0
  8  7  2  0  0  0  0
  9  8  1  0  0  0  0
  9 11  2  0  0  0  0
 10  9  1  0  0  0  0
 11 13  1  0  0  0  0
 12 11  1  0  0  0  0
 13 14  2  0  0  0  0
 13  4  1  0  0  0  0
 14 15  1  0  0  0  0
 16  4  1  0  0  0  0
 16 18  1  0  0  0  0
 16 19  1  0  0  0  0
 17 16  1  0  0  0  0
 20 21  1  0  0  0  0
 22 23  1  0  0  0  0
 22  2  2  0  0  0  0
 23 31  1  0  0  0  0
 24 26  1  0  0  0  0
 24 23  2  0  0  0  0
 25 24  1  0  0  0  0
 26 28  2  0  0  0  0
 27 26  1  0  0  0  0
 28  3  1  0  0  0  0
 28 29  1  0  0  0  0
 29 30  1  0  0  0  0
 31 29  2  0  0  0  0
 31 32  1  0  0  0  0
 33 36  1  0  0  0  0
 34 33  1  0  0  0  0
 35 33  1  0  0  0  0
 37 39  1  0  0  0  0
 37  3  1  0  0  0  0
 37 38  1  0  0  0  0
 40 37  1  0  0  0  0
M  CHG  2   5  -1   6  -1
M  END
