1,2,3
q = -2.0, confidence = 0.898

 30 31  0  0  0  0  0  0  0  0999 V2000
    2.4836    0.6468   -0.5166 O   0  5  0  0  0  0  0  0  0  0  0  0
   -1.3054    0.5755   -0.9349 O   0  5  0  0  0  0  0  0  0  0  0  0
    0.3532   -1.0454    0.0358 N   0  0  0  0  0  2  0  0  0  0  0  0
   -0.9467   -1.3756    0.2566 N   0  0  0  0  0  0  0  0  0  0  0  0
    1.2811   -1.8517    0.4807 C   0  0  0  0  0  3  0  0  0  0  0  0
    0.9553   -2.7831    0.9839 H   0  0  0  0  0  0  0  0  0  0  0  0
    2.7003   -1.6121    0.3551 C   0  0  0  0  0  0  0  0  0  0  0  0
    3.5966   -2.6287    0.7768 C   0  0  0  0  0  0  0  0  0  0  0  0
    3.1720   -3.5663    1.1692 H   0  0  0  0  0  0  0  0  0  0  0  0
    4.9795   -2.4672    0.6956 C   0  0  0  0  0  0  0  0  0  0  0  0
    5.6522   -3.2734    1.0218 H   0  0  0  0  0  0  0  0  0  0  0  0
    5.5027   -1.2609    0.1893 C   0  0  0  0  0  0  0  0  0  0  0  0
    6.5920   -1.1194    0.1182 H   0  0  0  0  0  0  0  0  0  0  0  0
    4.6486   -0.2344   -0.2248 C   0  0  0  0  0  0  0  0  0  0  0  0
    5.0373    0.7158   -0.6180 H   0  0  0  0  0  0  0  0  0  0  0  0
    3.2458   -0.3860   -0.1504 C   0  0  0  0  0  0  0  0  0  0  0  0
   -1.7702   -0.4847   -0.2958 C   0  0  0  0  0  0  0  0  0  0  0  0
   -3.2229   -0.6211   -0.1881 C   0  0  0  0  0  0  0  0  0  0  0  0
   -4.0355    0.3627   -0.8076 C   0  0  0  0  0  0  0  0  0  0  0  0
   -3.5222    1.1701   -1.3490 H   0  0  0  0  0  0  0  0  0  0  0  0
   -5.4260    0.3106   -0.7514 C   0  0  0  0  0  0  0  0  0  0  0  0
   -6.0337    1.0827   -1.2442 H   0  0  0  0  0  0  0  0  0  0  0  0
   -6.0408   -0.7566   -0.0608 C   0  0  0  0  0  0  0  0  0  0  0  0
   -7.1390   -0.8189   -0.0085 H   0  0  0  0  0  0  0  0  0  0  0  0
   -5.2751   -1.7412    0.5568 C   0  0  0  0  0  0  0  0  0  0  0  0
   -5.7655   -2.5701    1.0912 H   0  0  0  0  0  0  0  0  0  0  0  0
   -3.8517   -1.7100    0.5181 C   0  0  0  0  0  0  0  0  0  0  0  0
   -3.1205   -2.6721    1.1376 N   0  0  0  0  0  0  0  0  0  0  0  0
   -3.5887   -3.4652    1.5683 H   0  0  0  0  0  0  0  0  0  0  0  0
   -2.0934   -2.6163    1.0385 H   0  0  0  0  0  0  0  0  0  0  0  0
  1 16  1  0  0  0  0
  2 17  1  0  0  0  0
  3  4  1  0  0  0  0
  3  5  1  0  0  0  0
  5  6  1  0  0  0  0
  7  5  1  0  0  0  0
  7  8  1  0  0  0  0
  8  9  1  0  0  0  0
 10  8  2  0  0  0  0
 10 11  1  0  0  0  0
 12 10  1  0  0  0  0
 13 12  1  0  0  0  0
 14 16  1  0  0  0  0
 14 12  2  0  0  0  0
 15 14  1  0  0  0  0
 16  7  2  0  0  0  0
 17 18  1  0  0  0  0
 17  4  2  0  0  0  0
 18 27  1  0  0  0  0
 19 21  1  0  0  0  0
 19 18  2  0  0  0  0
 20 19  1  0  0  0  0
 21 23  2  0  0  0  0
 22 21  1  0  0  0  0
 23 24  1  0  0  0  0
 23 25  1  0  0  0  0
 25 26  1  0  0  0  0
 27 25  2  0  0  0  0
 27 28  1  0  0  0  0
 28 29  1  0  0  0  0
 30 28  1  0  0  0  0
M  CHG  2   1  -1   2  -1
M  END
