1,2,5
q = -2.0, confidence = 0.86

 34 35  0  0  0  0  0  0  0  0999 V2000
    1.4760    1.3476    0.6912 O   0  5  0  0  0  0  0  0  0  0  0  0
   -1.4760   -1.3476    0.6912 O   0  5  0  0  0  0  0  0  0  0  0  0
    6.8961    3.1489   -0.7923 Cl  0  0  0  0  0  0  0  0  0  0  0  0
   -6.8962   -3.1487   -0.7922 Cl  0  0  0  0  0  0  0  0  0  0  0  0
    0.9707    0.9991   -1.9798 N   0  0  0  0  0  2  0  0  0  0  0  0
   -0.9707   -0.9992   -1.9798 N   0  0  0  0  0  0  0  0  0  0  0  0
    5.2824    2.6250   -0.3722 C   0  0  0  0  0  0  0  0  0  0  0  0
    4.9021    2.5522    0.9870 C   0  0  0  0  0  0  0  0  0  0  0  0
    5.6303    2.8281    1.7634 H   0  0  0  0  0  0  0  0  0  0  0  0
    3.6193    2.1350    1.3331 C   0  0  0  0  0  0  0  0  0  0  0  0
    3.3145    2.0780    2.3881 H   0  0  0  0  0  0  0  0  0  0  0  0
    2.6690    1.7524    0.3437 C   0  0  0  0  0  0  0  0  0  0  0  0
    3.0679    1.8437   -1.0341 C   0  0  0  0  0  0  0  0  0  0  0  0
    4.3720    2.2864   -1.3698 C   0  0  0  0  0  0  0  0  0  0  0  0
    4.6682    2.3564   -2.4273 H   0  0  0  0  0  0  0  0  0  0  0  0
    2.1529    1.5240   -2.1035 C   0  0  0  0  0  3  0  0  0  0  0  0
    2.5200    1.7584   -3.1283 H   0  0  0  0  0  0  0  0  0  0  0  0
    0.2120    0.7362   -3.1894 C   0  0  0  0  0  0  0  0  0  0  0  0
    0.7981    0.9726   -4.1060 H   0  0  0  0  0  0  0  0  0  0  0  0
   -0.7005    1.3696   -3.1745 H   0  0  0  0  0  0  0  0  0  0  0  0
   -0.2120   -0.7364   -3.1894 C   0  0  0  0  0  0  0  0  0  0  0  0
   -0.7980   -0.9728   -4.1060 H   0  0  0  0  0  0  0  0  0  0  0  0
    0.7005   -1.3698   -3.1744 H   0  0  0  0  0  0  0  0  0  0  0  0
   -2.1529   -1.5241   -2.1034 C   0  0  0  0  0  0  0  0  0  0  0  0
   -2.5199   -1.7586   -3.1282 H   0  0  0  0  0  0  0  0  0  0  0  0
   -3.0679   -1.8437   -1.0341 C   0  0  0  0  0  0  0  0  0  0  0  0
   -4.3721   -2.2864   -1.3698 C   0  0  0  0  0  0  0  0  0  0  0  0
   -4.6682   -2.3564   -2.4273 H   0  0  0  0  0  0  0  0  0  0  0  0
   -5.2825   -2.6248   -0.3721 C   0  0  0  0  0  0  0  0  0  0  0  0
   -4.9022   -2.5520    0.9870 C   0  0  0  0  0  0  0  0  0  0  0  0
   -5.6304   -2.8279    1.7634 H   0  0  0  0  0  0  0  0  0  0  0  0
   -3.6194   -2.1349    1.3331 C   0  0  0  0  0  0  0  0  0  0  0  0
   -3.3145   -2.0779    2.3882 H   0  0  0  0  0  0  0  0  0  0  0  0
   -2.6691   -1.7524    0.3437 C   0  0  0  0  0  0  0  0  0  0  0  0
  3  7  1  0  0  0  0
  4 29  1  0  0  0  0
  7  8  1  0  0  0  0
  8 10  2  0  0  0  0
  8  9  1  0  0  0  0
 10 11  1  0  0  0  0
 12  1  1  0  0  0  0
 12 10  1  0  0  0  0
 13 12  2  0  0  0  0
 14 13  1  0  0  0  0
 14  7  2  0  0  0  0
 15 14  1  0  0  0  0
 16  5  1  0  0  0  0
 16 13  1  0  0  0  0
 17 16  1  0  0  0  0
 18 21  1  0  0  0  0
 18 20  1  0  0  0  0
 18  5  1  0  0  0  0
 19 18  1  0  0  0  0
 21 23  1  0  0  0  0
 21  6  1  0  0  0  0
 22 21  1  0  0  0  0
 24  6  2  0  0  0  0
 24 26  1  0  0  0  0
 25 24  1  0  0  0  0
 26 34  1  0  0  0  0
 27 26  2  0  0  0  0
 27 29  1  0  0  0  0
 28 27  1  0  0  0  0
 29 30  2  0  0  0  0
 30 32  1  0  0  0  0
 30 31  1  0  0  0  0
 32 33  1  0  0  0  0
 34  2  1  0  0  0  0
 34 32  2  0  0  0  0
M  CHG  2   1  -1   2  -1
M  END
