1,2,5
q = -2.0, confidence = 0.916

 30 31  0  0  1  0  0  0  0  0999 V2000
   -0.0243    1.9690    0.1855 O   0  5  0  0  0  0  0  0  0  0  0  0
    2.8848    0.1478   -1.2833 O   0  5  0  0  0  0  0  0  0  0  0  0
    3.8561   -1.8814   -1.5605 O   0  0  0  0  0  0  0  0  0  0  0  0
    2.5262   -1.8381    1.9200 O   0  0  0  0  0  0  0  0  0  0  0  0
    0.7692   -0.8253   -0.0001 N   0  0  0  0  0  2  0  0  0  0  0  0
   -1.2137    1.4458    0.1217 C   0  0  0  0  0  0  0  0  0  0  0  0
   -2.3143    2.3814    0.1520 C   0  0  0  0  0  0  0  0  0  0  0  0
   -2.0382    3.4425    0.2382 H   0  0  0  0  0  0  0  0  0  0  0  0
   -3.6240    1.9800    0.0780 C   0  0  0  0  0  0  0  0  0  0  0  0
   -4.4339    2.7268    0.1063 H   0  0  0  0  0  0  0  0  0  0  0  0
   -3.9771    0.5961   -0.0262 C   0  0  0  0  0  0  0  0  0  0  0  0
   -5.3381    0.1928   -0.0756 C   0  0  0  0  0  3  0  0  0  0  0  0
   -6.1150    0.9731   -0.0467 H   0  0  0  0  0  0  0  0  0  0  0  0
   -5.6888   -1.1494   -0.1525 C   0  0  0  0  0  0  0  0  0  0  0  0
   -6.7458   -1.4517   -0.1901 H   0  0  0  0  0  0  0  0  0  0  0  0
   -4.6654   -2.1246   -0.1644 C   0  0  0  0  0  0  0  0  0  0  0  0
   -4.9273   -3.1931   -0.2029 H   0  0  0  0  0  0  0  0  0  0  0  0
   -3.3245   -1.7527   -0.1121 C   0  0  0  0  0  0  0  0  0  0  0  0
   -2.5687   -2.5498   -0.0857 H   0  0  0  0  0  0  0  0  0  0  0  0
   -2.9253   -0.3851   -0.0644 C   0  0  0  0  0  0  0  0  0  0  0  0
   -1.5295    0.0401   -0.0224 C   0  0  0  0  0  0  0  0  0  0  0  0
   -0.5120   -0.9536   -0.2412 C   0  0  0  0  0  0  0  0  0  0  0  0
   -0.8481   -1.9128   -0.6911 H   0  0  0  0  0  0  0  0  0  0  0  0
    1.7321   -1.8217   -0.4325 C   0  0  1  0  0  0  0  0  0  0  0  0
    1.2948   -2.5397   -1.1644 H   0  0  0  0  0  0  0  0  0  0  0  0
    2.9551   -1.1470   -1.1710 C   0  0  0  0  0  0  0  0  0  0  0  0
    2.2435   -2.6460    0.7652 C   0  0  0  0  0  0  0  0  0  0  0  0
    1.5045   -3.4288    1.0446 H   0  0  0  0  0  0  0  0  0  0  0  0
    3.1875   -3.1383    0.4608 H   0  0  0  0  0  0  0  0  0  0  0  0
    1.6576   -1.5673    2.2789 H   0  0  0  0  0  0  0  0  0  0  0  0
  2 26  1  0  0  0  0
  3 26  2  0  0  0  0
  4 30  1  0  0  0  0
  6  7  2  0  0  0  0
  6  1  1  0  0  0  0
  7  8  1  0  0  0  0
  9 10  1  0  0  0  0
  9  7  1  0  0  0  0
 11  9  2  0  0  0  0
 12 13  1  0  0  0  0
 12 11  1  0  0  0  0
 14 12  1  0  0  0  0
 15 14  1  0  0  0  0
 16 14  2  0  0  0  0
 16 18  1  0  0  0  0
 17 16  1  0  0  0  0
 18 19  1  0  0  0  0
 18 20  2  0  0  0  0
 20 11  1  0  0  0  0
 20 21  1  0  0  0  0
 21  6  1  0  0  0  0
 22 21  2  0  0  0  0
 22  5  1  0  0  0  0
 23 22  1  0  0  0  0
 24 25  1  6  0  0  0
 24  5  1  0  0  0  0
 24 27  1  0  0  0  0
 26 24  1  0  0  0  0
 27 28  1  0  0  0  0
 27  4  1  0  0  0  0
 29 27  1  0  0  0  0
M  CHG  2   1  -1   2  -1
M  END
