1,4,8
q = -2.0, confidence = 0.76

 28 28  0  0  1  0  0  0  0  0999 V2000
    0.3806   -0.5002   -1.1988 O   0  5  0  0  0  0  0  0  0  0  0  0
    1.4743   -0.4875   -0.5074 C   0  0  0  0  0  0  0  0  0  0  0  0
    1.8433    0.6132    0.1729 N   0  0  0  0  0  0  0  0  0  0  0  0
    0.9641    1.6231   -0.0254 N   0  0  0  0  0  2  0  0  0  0  0  0
    1.2762    2.8329    0.4126 C   0  0  1  0  0  3  0  0  0  0  0  0
    0.3144    3.9291    0.3079 C   0  0  0  0  0  0  0  0  0  0  0  0
   -0.9709    3.7658    0.0619 N   0  0  0  0  0  0  0  0  0  0  0  0
   -1.4163    2.5637   -0.1939 O   0  5  0  0  0  0  0  0  0  0  0  0
    2.6191    3.0406    1.0535 C   0  0  0  0  0  0  0  0  0  0  0  0
    2.6890    2.4601    1.9981 H   0  0  0  0  0  0  0  0  0  0  0  0
    2.8219    4.1005    1.2762 H   0  0  0  0  0  0  0  0  0  0  0  0
    3.4174    2.6440    0.3931 H   0  0  0  0  0  0  0  0  0  0  0  0
    0.7270    5.3482    0.5968 C   0  0  0  0  0  0  0  0  0  0  0  0
   -0.1459    6.0057    0.4330 H   0  0  0  0  0  0  0  0  0  0  0  0
    1.5488    5.6779   -0.0713 H   0  0  0  0  0  0  0  0  0  0  0  0
    1.0704    5.4827    1.6437 H   0  0  0  0  0  0  0  0  0  0  0  0
    2.3413   -1.6611   -0.4424 C   0  0  0  0  0  0  0  0  0  0  0  0
    1.9678   -2.8438   -1.1257 C   0  0  0  0  0  0  0  0  0  0  0  0
    1.0227   -2.8298   -1.6879 H   0  0  0  0  0  0  0  0  0  0  0  0
    2.7730   -3.9796   -1.0846 C   0  0  0  0  0  0  0  0  0  0  0  0
    2.4746   -4.8928   -1.6192 H   0  0  0  0  0  0  0  0  0  0  0  0
    3.9783   -3.9444   -0.3488 C   0  0  0  0  0  0  0  0  0  0  0  0
    4.6219   -4.8370   -0.3111 H   0  0  0  0  0  0  0  0  0  0  0  0
    4.3704   -2.7933    0.3349 C   0  0  0  0  0  0  0  0  0  0  0  0
    5.3064   -2.7547    0.9103 H   0  0  0  0  0  0  0  0  0  0  0  0
    3.5664   -1.6291    0.3060 C   0  0  0  0  0  0  0  0  0  0  0  0
    3.9760   -0.5483    0.9766 O   0  0  0  0  0  0  0  0  0  0  0  0
    3.2563    0.1608    0.8340 H   0  0  0  0  0  0  0  0  0  0  0  0
  1  2  1  0  0  0  0
  2 17  1  0  0  0  0
  2  3  2  0  0  0  0
  4  3  1  0  0  0  0
  5  4  1  1  0  0  0
  5  9  1  0  0  0  0
  6  5  1  0  0  0  0
  6 13  1  0  0  0  0
  7  6  2  0  0  0  0
  8  7  1  0  0  0  0
  9 11  1  0  0  0  0
  9 10  1  0  0  0  0
 12  9  1  0  0  0  0
 13 16  1  0  0  0  0
 14 13  1  0  0  0  0
 15 13  1  0  0  0  0
 17 26  1  0  0  0  0
 18 20  1  0  0  0  0
 18 17  2  0  0  0  0
 19 18  1  0  0  0  0
 20 22  2  0  0  0  0
 21 20  1  0  0  0  0
 22 23  1  0  0  0  0
 22 24  1  0  0  0  0
 24 25  1  0  0  0  0
 26 24  2  0  0  0  0
 26 27  1  0  0  0  0
 28 27  1  0  0  0  0
M  CHG  2   1  -1   8  -1
M  END
