1,2,4
q = -2.0, confidence = 0.906

 27 27  0  0  1  0  0  0  0  0999 V2000
    0.3804   -1.3449   -0.2549 O   0  5  0  0  0  0  0  0  0  0  0  0
   -0.5270    1.2607   -0.3298 N   0  0  0  0  0  2  0  0  0  0  0  0
    1.5872   -0.8154   -0.2331 C   0  0  0  0  0  0  0  0  0  0  0  0
   -2.9319    0.4068   -0.0051 O   0  0  0  0  0  1  0  0  0  0  0  0
    2.7117   -1.6800   -0.2074 C   0  0  0  0  0  0  0  0  0  0  0  0
    2.5234   -2.7628   -0.2315 H   0  0  0  0  0  0  0  0  0  0  0  0
    4.0047   -1.1652   -0.1532 C   0  0  0  0  0  0  0  0  0  0  0  0
    4.8563   -1.8647   -0.1356 H   0  0  0  0  0  0  0  0  0  0  0  0
    4.2601    0.2312   -0.1193 C   0  0  0  0  0  0  0  0  0  0  0  0
    3.1535    1.0816   -0.1465 C   0  0  0  0  0  0  0  0  0  0  0  0
    3.3068    2.1736   -0.1249 H   0  0  0  0  0  0  0  0  0  0  0  0
    1.8201    0.5954   -0.2077 C   0  0  0  0  0  0  0  0  0  0  0  0
    0.7369    1.5477   -0.2402 C   0  0  0  0  0  3  0  0  0  0  0  0
    1.0470    2.6118   -0.1940 H   0  0  0  0  0  0  0  0  0  0  0  0
   -1.5518    2.3182   -0.3796 C   0  0  1  0  0  0  0  0  0  0  0  0
   -1.8640    2.3806   -1.4482 H   0  0  0  0  0  0  0  0  0  0  0  0
   -2.7449    1.7339    0.3914 C   0  0  0  0  0  0  0  0  0  0  0  0
   -2.5384    1.7883    1.4877 H   0  0  0  0  0  0  0  0  0  0  0  0
   -3.6671    2.3203    0.1807 H   0  0  0  0  0  0  0  0  0  0  0  0
   -1.1379    3.6996    0.1124 C   0  0  0  0  0  0  0  0  0  0  0  0
   -0.3637    4.1672   -0.5276 H   0  0  0  0  0  0  0  0  0  0  0  0
   -0.7573    3.6597    1.1538 H   0  0  0  0  0  0  0  0  0  0  0  0
   -2.0177    4.3726    0.0971 H   0  0  0  0  0  0  0  0  0  0  0  0
    5.6726    0.7549   -0.0632 C   0  0  0  0  0  0  0  0  0  0  0  0
    6.2141    0.3677    0.8253 H   0  0  0  0  0  0  0  0  0  0  0  0
    5.6962    1.8608   -0.0175 H   0  0  0  0  0  0  0  0  0  0  0  0
    6.2559    0.4419   -0.9546 H   0  0  0  0  0  0  0  0  0  0  0  0
  1  3  1  0  0  0  0
  2 13  1  0  0  0  0
  3 12  2  0  0  0  0
  3  5  1  0  0  0  0
  4 17  1  0  0  0  0
  5  7  2  0  0  0  0
  6  5  1  0  0  0  0
  7  8  1  0  0  0  0
  7  9  1  0  0  0  0
  9 24  1  0  0  0  0
 10 11  1  0  0  0  0
 10  9  2  0  0  0  0
 12 10  1  0  0  0  0
 13 12  1  0  0  0  0
 13 14  1  0  0  0  0
 15 16  1  6  0  0  0
 15  2  1  0  0  0  0
 15 20  1  0  0  0  0
 15 17  1  0  0  0  0
 17 18  1  0  0  0  0
 19 17  1  0  0  0  0
 20 22  1  0  0  0  0
 21 20  1  0  0  0  0
 23 20  1  0  0  0  0
 24 26  1  0  0  0  0
 24 25  1  0  0  0  0
 27 24  1  0  0  0  0
M  CHG  1   1  -1
M  END
