1,2,3
q = -2.0, confidence = 0.858

 38 40  0  0  0  0  0  0  0  0999 V2000
   -1.8552   -0.4521   -1.2498 O   0  5  0  0  0  0  0  0  0  0  0  0
    0.5627   -1.4244   -1.3743 O   0  5  0  0  0  0  0  0  0  0  0  0
   -0.7907    2.0840   -1.0270 N   0  0  0  0  0  2  0  0  0  0  0  0
    1.6325    1.0803   -1.1698 N   0  0  0  0  0  0  0  0  0  0  0  0
   -2.9925    0.1245   -1.5059 C   0  0  0  0  0  0  0  0  0  0  0  0
   -4.1577   -0.6612   -1.7526 C   0  0  0  0  0  0  0  0  0  0  0  0
   -5.3881   -0.0625   -1.9979 C   0  0  0  0  0  0  0  0  0  0  0  0
   -5.5198    1.3481   -2.0505 C   0  0  0  0  0  0  0  0  0  0  0  0
   -4.3937    2.1382   -1.8589 C   0  0  0  0  0  0  0  0  0  0  0  0
   -3.1239    1.5623   -1.5699 C   0  0  0  0  0  0  0  0  0  0  0  0
   -1.9907    2.4272   -1.4344 C   0  0  0  0  0  3  0  0  0  0  0  0
    0.2520    3.0279   -1.0010 C   0  0  0  0  0  0  0  0  0  0  0  0
    0.0878    4.4208   -0.8608 C   0  0  0  0  0  0  0  0  0  0  0  0
    1.2041    5.2663   -0.8271 C   0  0  0  0  0  0  0  0  0  0  0  0
    2.5005    4.7299   -0.9120 C   0  0  0  0  0  0  0  0  0  0  0  0
    2.6803    3.3463   -1.0280 C   0  0  0  0  0  0  0  0  0  0  0  0
    1.5666    2.4863   -1.0854 C   0  0  0  0  0  0  0  0  0  0  0  0
    2.6623    0.5078   -1.7480 C   0  0  0  0  0  0  0  0  0  0  0  0
    2.8157   -0.8926   -2.0105 C   0  0  0  0  0  0  0  0  0  0  0  0
    4.0455   -1.3639   -2.5515 C   0  0  0  0  0  0  0  0  0  0  0  0
    4.2048   -2.6902   -2.9337 C   0  0  0  0  0  0  0  0  0  0  0  0
    3.1048   -3.5769   -2.8179 C   0  0  0  0  0  0  0  0  0  0  0  0
    1.8813   -3.1448   -2.3178 C   0  0  0  0  0  0  0  0  0  0  0  0
    1.7030   -1.8017   -1.8715 C   0  0  0  0  0  0  0  0  0  0  0  0
   -4.0477   -1.7538   -1.7045 H   0  0  0  0  0  0  0  0  0  0  0  0
   -6.2755   -0.6964   -2.1519 H   0  0  0  0  0  0  0  0  0  0  0  0
   -6.4984    1.8078   -2.2498 H   0  0  0  0  0  0  0  0  0  0  0  0
   -4.4698    3.2366   -1.9145 H   0  0  0  0  0  0  0  0  0  0  0  0
   -2.1600    3.4788   -1.7488 H   0  0  0  0  0  0  0  0  0  0  0  0
   -0.9209    4.8423   -0.7437 H   0  0  0  0  0  0  0  0  0  0  0  0
    1.0621    6.3504   -0.7038 H   0  0  0  0  0  0  0  0  0  0  0  0
    3.3781    5.3901   -0.8489 H   0  0  0  0  0  0  0  0  0  0  0  0
    3.6958    2.9253   -1.0255 H   0  0  0  0  0  0  0  0  0  0  0  0
    3.4768    1.1544   -2.1369 H   0  0  0  0  0  0  0  0  0  0  0  0
    4.8773   -0.6490   -2.6626 H   0  0  0  0  0  0  0  0  0  0  0  0
    5.1646   -3.0448   -3.3362 H   0  0  0  0  0  0  0  0  0  0  0  0
    3.2200   -4.6275   -3.1279 H   0  0  0  0  0  0  0  0  0  0  0  0
    1.0255   -3.8271   -2.2158 H   0  0  0  0  0  0  0  0  0  0  0  0
  3 12  1  0  0  0  0
  4 17  1  0  0  0  0
  5  1  1  0  0  0  0
  6 25  1  0  0  0  0
  6  5  2  0  0  0  0
  7  6  1  0  0  0  0
  8  7  2  0  0  0  0
  8  9  1  0  0  0  0
  9 10  2  0  0  0  0
 10  5  1  0  0  0  0
 10 11  1  0  0  0  0
 11  3  1  0  0  0  0
 12 13  1  0  0  0  0
 13 14  2  0  0  0  0
 13 30  1  0  0  0  0
 14 31  1  0  0  0  0
 15 32  1  0  0  0  0
 15 14  1  0  0  0  0
 16 33  1  0  0  0  0
 16 15  2  0  0  0  0
 17 16  1  0  0  0  0
 17 12  2  0  0  0  0
 18  4  2  0  0  0  0
 19 24  1  0  0  0  0
 19 18  1  0  0  0  0
 20 19  2  0  0  0  0
 21 22  2  0  0  0  0
 21 20  1  0  0  0  0
 22 23  1  0  0  0  0
 23 38  1  0  0  0  0
 23 24  2  0  0  0  0
 24  2  1  0  0  0  0
 26  7  1  0  0  0  0
 27  8  1  0  0  0  0
 28  9  1  0  0  0  0
 29 11  1  0  0  0  0
 34 18  1  0  0  0  0
 35 20  1  0  0  0  0
 36 21  1  0  0  0  0
 37 22  1  0  0  0  0
M  CHG  2   1  -1   2  -1
M  END
