1,4,6
q = -2.0, confidence = 0.974

 31 31  0  0  1  0  0  0  0  0999 V2000
    0.2626    0.3428   -1.3265 O   0  5  0  0  0  0  0  0  0  0  0  0
    5.6233    0.6881   -0.6758 O   0  0  0  0  0  0  0  0  0  0  0  0
    0.6829   -3.8490    2.6506 O   0  5  0  0  0  0  0  0  0  0  0  0
   -0.3692   -2.3812    1.3044 O   0  0  0  0  0  0  0  0  0  0  0  0
    1.9618    3.5224   -1.4194 N   0  0  0  0  0  0  0  0  0  0  0  0
    1.8097   -1.0842    0.6758 N   0  0  0  0  0  0  0  0  0  0  0  0
    1.0240    2.5801   -1.5653 C   0  0  0  0  0  0  0  0  0  0  0  0
   -0.3076    2.9634   -2.1471 C   0  0  0  0  0  0  0  0  0  0  0  0
    1.2339    1.2089   -1.1744 C   0  0  0  0  0  0  0  0  0  0  0  0
    2.5151    0.8598   -0.6526 C   0  0  0  0  0  0  0  0  0  0  0  0
    3.4791    1.8795   -0.4728 C   0  0  0  0  0  0  0  0  0  0  0  0
    4.8464    1.6018    0.1036 C   0  0  0  0  0  0  0  0  0  0  0  0
    3.1452    3.1848   -0.8784 C   0  0  0  0  0  0  0  0  0  0  0  0
    2.7776   -0.5881   -0.3282 C   0  0  0  0  0  0  0  0  0  0  0  0
    2.0297   -2.4577    1.1853 C   0  0  2  0  0  0  0  0  0  0  0  0
    0.6915   -2.9601    1.8010 C   0  0  0  0  0  0  0  0  0  0  0  0
    3.1988   -2.5890    2.1526 C   0  0  0  0  0  0  0  0  0  0  0  0
   -0.5511    2.3438   -3.0361 H   0  0  0  0  0  0  0  0  0  0  0  0
   -0.2931    4.0331   -2.4259 H   0  0  0  0  0  0  0  0  0  0  0  0
   -1.1208    2.7863   -1.4115 H   0  0  0  0  0  0  0  0  0  0  0  0
    4.7642    1.1418    1.1137 H   0  0  0  0  0  0  0  0  0  0  0  0
    5.3813    2.5741    0.2377 H   0  0  0  0  0  0  0  0  0  0  0  0
    5.3940    0.8769   -1.6053 H   0  0  0  0  0  0  0  0  0  0  0  0
    3.8826    3.9994   -0.7461 H   0  0  0  0  0  0  0  0  0  0  0  0
    2.6196   -1.2168   -1.2316 H   0  0  0  0  0  0  0  0  0  0  0  0
    3.8237   -0.7342    0.0076 H   0  0  0  0  0  0  0  0  0  0  0  0
    1.7486   -0.4138    1.4623 H   0  0  0  0  0  0  0  0  0  0  0  0
    2.1892   -3.0877    0.2839 H   0  0  0  0  0  0  0  0  0  0  0  0
    3.0901   -1.8778    2.9984 H   0  0  0  0  0  0  0  0  0  0  0  0
    3.1767   -3.6100    2.5794 H   0  0  0  0  0  0  0  0  0  0  0  0
    4.1787   -2.4143    1.6649 H   0  0  0  0  0  0  0  0  0  0  0  0
  1  9  1  0  0  0  0
  2 12  1  0  0  0  0
  4 16  2  0  0  0  0
  5 13  1  0  0  0  0
  6 15  1  0  0  0  0
  6 27  1  0  0  0  0
  7  5  2  0  0  0  0
  7  9  1  0  0  0  0
  8  7  1  0  0  0  0
  8 20  1  0  0  0  0
  9 10  2  0  0  0  0
 10 11  1  0  0  0  0
 10 14  1  0  0  0  0
 11 12  1  0  0  0  0
 12 22  1  0  0  0  0
 12 21  1  0  0  0  0
 13 24  1  0  0  0  0
 13 11  2  0  0  0  0
 14 26  1  0  0  0  0
 14  6  1  0  0  0  0
 15 28  1  6  0  0  0
 15 16  1  0  0  0  0
 15 17  1  0  0  0  0
 16  3  1  0  0  0  0
 17 30  1  0  0  0  0
 17 29  1  0  0  0  0
 18  8  1  0  0  0  0
 19  8  1  0  0  0  0
 23  2  1  0  0  0  0
 25 14  1  0  0  0  0
 31 17  1  0  0  0  0
M  CHG  2   1  -1   3  -1
M  END
