1,4,6
q = -2.0, confidence = 0.958

 41 42  0  0  1  0  0  0  0  0999 V2000
    0.6551   -0.1915   -1.1971 O   0  5  0  0  0  0  0  0  0  0  0  0
   -4.1714   -0.4541   -3.6850 O   0  0  0  0  0  0  0  0  0  0  0  0
   -2.2419    3.4634    2.2171 O   0  5  0  0  0  0  0  0  0  0  0  0
   -0.5138    2.1605    1.5949 O   0  0  0  0  0  0  0  0  0  0  0  0
   -0.4575   -3.2815   -2.6711 N   0  0  0  0  0  0  0  0  0  0  0  0
   -1.8315    1.0353   -0.3681 N   0  0  0  0  0  0  0  0  0  0  0  0
    1.7549   -2.6826   -1.8010 C   0  0  0  0  0  0  0  0  0  0  0  0
    0.3205   -2.3521   -2.1067 C   0  0  0  0  0  0  0  0  0  0  0  0
   -0.1671   -1.0431   -1.7590 C   0  0  0  0  0  0  0  0  0  0  0  0
   -1.5264   -0.7328   -2.0597 C   0  0  0  0  0  0  0  0  0  0  0  0
   -3.8238   -1.5718   -2.8611 C   0  0  0  0  0  0  0  0  0  0  0  0
   -2.3440   -1.7477   -2.6127 C   0  0  0  0  0  0  0  0  0  0  0  0
   -1.7489   -2.9897   -2.9035 C   0  0  0  0  0  0  0  0  0  0  0  0
   -2.0058    0.6735   -1.7915 C   0  0  0  0  0  0  0  0  0  0  0  0
   -2.3450    2.3551    0.0527 C   0  0  2  0  0  0  0  0  0  0  0  0
   -1.6827    2.7063    1.4203 C   0  0  0  0  0  0  0  0  0  0  0  0
   -3.8809    2.4712    0.0880 C   0  0  0  0  0  0  0  0  0  0  0  0
   -4.5535    1.2628    0.6995 C   0  0  0  0  0  0  0  0  0  0  0  0
   -5.3228    0.3882   -0.0952 C   0  0  0  0  0  0  0  0  0  0  0  0
   -5.8887   -0.7758    0.4503 C   0  0  0  0  0  0  0  0  0  0  0  0
   -5.6876   -1.0883    1.8033 C   0  0  0  0  0  0  0  0  0  0  0  0
   -4.9303   -0.2203    2.6075 C   0  0  0  0  0  0  0  0  0  0  0  0
   -4.3719    0.9463    2.0649 C   0  0  0  0  0  0  0  0  0  0  0  0
    2.4493   -1.9371   -2.2425 H   0  0  0  0  0  0  0  0  0  0  0  0
    1.9895   -3.6943   -2.1802 H   0  0  0  0  0  0  0  0  0  0  0  0
    1.9296   -2.6535   -0.7032 H   0  0  0  0  0  0  0  0  0  0  0  0
   -4.2247   -2.5229   -3.2895 H   0  0  0  0  0  0  0  0  0  0  0  0
   -3.4893   -0.4120   -4.3815 H   0  0  0  0  0  0  0  0  0  0  0  0
   -4.3535   -1.4070   -1.8985 H   0  0  0  0  0  0  0  0  0  0  0  0
   -2.3690   -3.7962   -3.3393 H   0  0  0  0  0  0  0  0  0  0  0  0
   -3.0598    0.7923   -2.1102 H   0  0  0  0  0  0  0  0  0  0  0  0
   -1.3876    1.3995   -2.3640 H   0  0  0  0  0  0  0  0  0  0  0  0
   -2.2423    0.2925    0.2264 H   0  0  0  0  0  0  0  0  0  0  0  0
   -1.9262    3.0916   -0.6656 H   0  0  0  0  0  0  0  0  0  0  0  0
   -4.0808    3.3774    0.6976 H   0  0  0  0  0  0  0  0  0  0  0  0
   -4.2802    2.6427   -0.9317 H   0  0  0  0  0  0  0  0  0  0  0  0
   -5.4711    0.6202   -1.1627 H   0  0  0  0  0  0  0  0  0  0  0  0
   -6.4817   -1.4470   -0.1906 H   0  0  0  0  0  0  0  0  0  0  0  0
   -6.1179   -2.0073    2.2304 H   0  0  0  0  0  0  0  0  0  0  0  0
   -4.7676   -0.4558    3.6707 H   0  0  0  0  0  0  0  0  0  0  0  0
   -3.7812    1.6306    2.6928 H   0  0  0  0  0  0  0  0  0  0  0  0
  2 11  1  0  0  0  0
  5  8  1  0  0  0  0
  6 15  1  0  0  0  0
  6 33  1  0  0  0  0
  7 26  1  0  0  0  0
  8  7  1  0  0  0  0
  8  9  2  0  0  0  0
  9  1  1  0  0  0  0
 10 14  1  0  0  0  0
 10  9  1  0  0  0  0
 11 12  1  0  0  0  0
 11 29  1  0  0  0  0
 12 10  2  0  0  0  0
 13  5  2  0  0  0  0
 13 12  1  0  0  0  0
 14  6  1  0  0  0  0
 15 34  1  6  0  0  0
 15 17  1  0  0  0  0
 15 16  1  0  0  0  0
 16  4  2  0  0  0  0
 16  3  1  0  0  0  0
 17 35  1  0  0  0  0
 17 18  1  0  0  0  0
 18 23  1  0  0  0  0
 19 20  1  0  0  0  0
 19 18  2  0  0  0  0
 20 21  2  0  0  0  0
 21 39  1  0  0  0  0
 21 22  1  0  0  0  0
 22 40  1  0  0  0  0
 23 22  2  0  0  0  0
 23 41  1  0  0  0  0
 24  7  1  0  0  0  0
 25  7  1  0  0  0  0
 27 11  1  0  0  0  0
 28  2  1  0  0  0  0
 30 13  1  0  0  0  0
 31 14  1  0  0  0  0
 32 14  1  0  0  0  0
 36 17  1  0  0  0  0
 37 19  1  0  0  0  0
 38 20  1  0  0  0  0
M  CHG  2   1  -1   3  -1
M  END
