1,2,3
q = -2.0, confidence = 0.802

 31 33  0  0  1  0  0  0  0  0999 V2000
   -1.0380   -1.1841    0.0571 O   0  5  0  0  0  0  0  0  0  0  0  0
    0.8362    2.3500    0.0090 O   0  5  0  0  0  0  0  0  0  0  0  0
   -1.7547    1.6379    0.0138 N   0  0  0  0  0  2  0  0  0  0  0  0
   -3.3190   -0.2711    0.0116 C   0  0  0  0  0  0  0  0  0  0  0  0
   -2.3368   -1.3246    0.0488 C   0  0  0  0  0  0  0  0  0  0  0  0
   -2.7823   -2.6953    0.0812 C   0  0  0  0  0  0  0  0  0  0  0  0
   -1.9934   -3.4605    0.1191 H   0  0  0  0  0  0  0  0  0  0  0  0
   -4.1138   -3.0231    0.0678 C   0  0  0  0  0  0  0  0  0  0  0  0
   -4.4236   -4.0799    0.0936 H   0  0  0  0  0  0  0  0  0  0  0  0
   -6.5039   -2.3759    0.0039 C   0  0  0  0  0  0  0  0  0  0  0  0
   -6.7608   -3.4467    0.0278 H   0  0  0  0  0  0  0  0  0  0  0  0
   -7.5031   -1.4121   -0.0420 C   0  0  0  0  0  0  0  0  0  0  0  0
   -8.5639   -1.7033   -0.0551 H   0  0  0  0  0  0  0  0  0  0  0  0
   -7.1346   -0.0484   -0.0724 C   0  0  0  0  0  0  0  0  0  0  0  0
   -7.9119    0.7300   -0.1104 H   0  0  0  0  0  0  0  0  0  0  0  0
   -5.7942    0.3283   -0.0557 C   0  0  0  0  0  0  0  0  0  0  0  0
   -5.5696    1.4031   -0.0831 H   0  0  0  0  0  0  0  0  0  0  0  0
   -4.7405   -0.6290   -0.0079 C   0  0  1  0  0  3  0  0  0  0  0  0
   -5.1301   -2.0146    0.0210 C   0  0  0  0  0  0  0  0  0  0  0  0
   -2.9640    1.1140   -0.0026 C   0  0  0  0  0  0  0  0  0  0  0  0
   -3.7982    1.8328   -0.0282 H   0  0  0  0  0  0  0  0  0  0  0  0
   -1.4669    3.0203    0.0085 C   0  0  0  0  0  0  0  0  0  0  0  0
   -0.0683    3.3256   -0.0001 C   0  0  0  0  0  0  0  0  0  0  0  0
    0.3323    4.6858   -0.0134 C   0  0  0  0  0  0  0  0  0  0  0  0
    1.4097    4.9069   -0.0187 H   0  0  0  0  0  0  0  0  0  0  0  0
   -0.6251    5.7023   -0.0135 C   0  0  0  0  0  0  0  0  0  0  0  0
   -0.2990    6.7538   -0.0219 H   0  0  0  0  0  0  0  0  0  0  0  0
   -2.0031    5.3958    0.0000 C   0  0  0  0  0  0  0  0  0  0  0  0
   -2.7507    6.2024    0.0023 H   0  0  0  0  0  0  0  0  0  0  0  0
   -2.4202    4.0616    0.0116 C   0  0  0  0  0  0  0  0  0  0  0  0
   -3.4958    3.8324    0.0243 H   0  0  0  0  0  0  0  0  0  0  0  0
  4  5  1  0  0  0  0
  5  1  1  0  0  0  0
  5  6  2  0  0  0  0
  6  7  1  0  0  0  0
  8  6  1  0  0  0  0
  8  9  1  0  0  0  0
 10 19  1  0  0  0  0
 10 11  1  0  0  0  0
 12 10  2  0  0  0  0
 13 12  1  0  0  0  0
 14 16  2  0  0  0  0
 14 12  1  0  0  0  0
 15 14  1  0  0  0  0
 17 16  1  0  0  0  0
 18 16  1  6  0  0  0
 18  4  1  0  0  0  0
 18 19  1  0  0  0  0
 19  8  2  0  0  0  0
 20  4  2  0  0  0  0
 20  3  1  0  0  0  0
 21 20  1  0  0  0  0
 22 30  1  0  0  0  0
 22  3  1  0  0  0  0
 23 22  2  0  0  0  0
 23  2  1  0  0  0  0
 24 23  1  0  0  0  0
 25 24  1  0  0  0  0
 26 24  2  0  0  0  0
 26 28  1  0  0  0  0
 27 26  1  0  0  0  0
 28 29  1  0  0  0  0
 28 30  2  0  0  0  0
 30 31  1  0  0  0  0
M  CHG  2   1  -1   2  -1
M  END
