1,2,3
q = -2.0, confidence = 0.896

 27 28  0  0  0  0  0  0  0  0999 V2000
   -2.2739   -0.8762    0.0489 O   0  5  0  0  0  0  0  0  0  0  0  0
    1.5168   -0.8913   -0.2309 O   0  5  0  0  0  0  0  0  0  0  0  0
   -0.2072    0.9148   -0.1222 N   0  0  0  0  0  2  0  0  0  0  0  0
    1.0760    1.3698   -0.0384 N   0  0  0  0  0  0  0  0  0  0  0  0
    6.1585    1.0583    0.0080 N   0  0  0  0  0  0  0  0  0  0  0  0
   -3.0775    0.1800   -0.0815 C   0  0  0  0  0  0  0  0  0  0  0  0
   -4.4725   -0.0345   -0.1114 C   0  0  0  0  0  0  0  0  0  0  0  0
   -5.3536    1.0470   -0.2033 C   0  0  0  0  0  0  0  0  0  0  0  0
   -4.8687    2.3699   -0.2621 C   0  0  0  0  0  0  0  0  0  0  0  0
   -3.4938    2.5945   -0.2303 C   0  0  0  0  0  0  0  0  0  0  0  0
   -2.5704    1.5184   -0.1481 C   0  0  0  0  0  0  0  0  0  0  0  0
   -1.1621    1.8145   -0.1056 C   0  0  0  0  0  3  0  0  0  0  0  0
    1.9187    0.3600   -0.1205 C   0  0  0  0  0  0  0  0  0  0  0  0
    3.3737    0.6079   -0.0782 C   0  0  0  0  0  0  0  0  0  0  0  0
    3.8914    1.9121    0.0586 C   0  0  0  0  0  0  0  0  0  0  0  0
    5.2823    2.0747    0.0966 C   0  0  0  0  0  0  0  0  0  0  0  0
    5.6555   -0.1796   -0.1245 C   0  0  0  0  0  0  0  0  0  0  0  0
    4.2824   -0.4639   -0.1725 C   0  0  0  0  0  0  0  0  0  0  0  0
   -4.8341   -1.0711   -0.0596 H   0  0  0  0  0  0  0  0  0  0  0  0
   -6.4377    0.8582   -0.2279 H   0  0  0  0  0  0  0  0  0  0  0  0
   -5.5675    3.2155   -0.3335 H   0  0  0  0  0  0  0  0  0  0  0  0
   -3.0974    3.6209   -0.2761 H   0  0  0  0  0  0  0  0  0  0  0  0
   -0.8455    2.8738   -0.0596 H   0  0  0  0  0  0  0  0  0  0  0  0
    3.2062    2.7680    0.1329 H   0  0  0  0  0  0  0  0  0  0  0  0
    5.7148    3.0856    0.2041 H   0  0  0  0  0  0  0  0  0  0  0  0
    6.3897   -1.0019   -0.1974 H   0  0  0  0  0  0  0  0  0  0  0  0
    3.9100   -1.4922   -0.2817 H   0  0  0  0  0  0  0  0  0  0  0  0
  2 13  1  0  0  0  0
  3 12  1  0  0  0  0
  3  4  1  0  0  0  0
  5 16  1  0  0  0  0
  6  1  1  0  0  0  0
  7  6  1  0  0  0  0
  7 19  1  0  0  0  0
  8  7  2  0  0  0  0
  9 10  2  0  0  0  0
  9  8  1  0  0  0  0
 10 11  1  0  0  0  0
 11 12  1  0  0  0  0
 11  6  2  0  0  0  0
 12 23  1  0  0  0  0
 13 14  1  0  0  0  0
 13  4  2  0  0  0  0
 14 15  1  0  0  0  0
 15 16  2  0  0  0  0
 15 24  1  0  0  0  0
 16 25  1  0  0  0  0
 17  5  2  0  0  0  0
 18 17  1  0  0  0  0
 18 14  2  0  0  0  0
 20  8  1  0  0  0  0
 21  9  1  0  0  0  0
 22 10  1  0  0  0  0
 26 17  1  0  0  0  0
 27 18  1  0  0  0  0
M  CHG  2   1  -1   2  -1
M  END
