1,3,4
q = -2.0, confidence = 0.712

 29 30  0  0  0  0  0  0  0  0999 V2000
    1.3005   -1.9205    0.2919 O   0  5  0  0  0  0  0  0  0  0  0  0
    3.0167   -3.1061    1.1039 O   0  0  0  0  0  0  0  0  0  0  0  0
   -0.5388    0.5311   -1.7671 O   0  5  0  0  0  0  0  0  0  0  0  0
    1.5436    0.6579   -0.1166 N   0  0  0  0  0  2  0  0  0  0  0  0
    1.1281    1.8295    0.1929 N   0  0  0  0  0  2  0  0  0  0  0  0
    2.5747   -2.0668    0.6409 C   0  0  0  0  0  0  0  0  0  0  0  0
    3.4358   -0.8410    0.4646 C   0  0  0  0  0  0  0  0  0  0  0  0
    2.9312    0.4478    0.1515 C   0  0  0  0  0  0  0  0  0  0  0  0
    3.8155    1.5470    0.0780 C   0  0  0  0  0  0  0  0  0  0  0  0
    5.1824    1.3724    0.3087 C   0  0  0  0  0  0  0  0  0  0  0  0
    5.6877    0.0991    0.6253 C   0  0  0  0  0  0  0  0  0  0  0  0
    4.8127   -0.9895    0.7094 C   0  0  0  0  0  0  0  0  0  0  0  0
   -0.8951    1.6540   -1.2188 C   0  0  0  0  0  0  0  0  0  0  0  0
   -0.1008    2.2855   -0.1926 C   0  0  0  0  0  0  0  0  0  0  0  0
   -0.5208    3.5245    0.3750 C   0  0  0  0  0  0  0  0  0  0  0  0
   -1.7004    4.1463   -0.0161 C   0  0  0  0  0  0  0  0  0  0  0  0
   -2.4610    3.5225   -1.0512 C   0  0  0  0  0  0  0  0  0  0  0  0
   -2.0687    2.3330   -1.6518 C   0  0  0  0  0  0  0  0  0  0  0  0
   -2.1705    5.4384    0.6000 C   0  0  0  0  0  0  0  0  0  0  0  0
    3.4008    2.5306   -0.1793 H   0  0  0  0  0  0  0  0  0  0  0  0
    5.8609    2.2353    0.2302 H   0  0  0  0  0  0  0  0  0  0  0  0
    6.7641   -0.0425    0.8035 H   0  0  0  0  0  0  0  0  0  0  0  0
    5.1620   -1.9973    0.9780 H   0  0  0  0  0  0  0  0  0  0  0  0
    0.1335    3.9667    1.1417 H   0  0  0  0  0  0  0  0  0  0  0  0
   -3.3930    4.0054   -1.3874 H   0  0  0  0  0  0  0  0  0  0  0  0
   -2.6621    1.8645   -2.4498 H   0  0  0  0  0  0  0  0  0  0  0  0
   -1.4528    5.8149    1.3536 H   0  0  0  0  0  0  0  0  0  0  0  0
   -2.3030    6.2283   -0.1687 H   0  0  0  0  0  0  0  0  0  0  0  0
   -3.1536    5.3123    1.1008 H   0  0  0  0  0  0  0  0  0  0  0  0
  1  6  1  0  0  0  0
  3 13  1  0  0  0  0
  4  8  1  0  0  0  0
  4  5  1  0  0  0  0
  6  2  2  0  0  0  0
  7  6  1  0  0  0  0
  7 12  1  0  0  0  0
  8  7  2  0  0  0  0
  9  8  1  0  0  0  0
  9 10  2  0  0  0  0
 10 11  1  0  0  0  0
 11 12  2  0  0  0  0
 11 22  1  0  0  0  0
 12 23  1  0  0  0  0
 13 14  1  0  0  0  0
 14  5  1  0  0  0  0
 14 15  2  0  0  0  0
 15 24  1  0  0  0  0
 16 15  1  0  0  0  0
 16 19  1  0  0  0  0
 17 16  2  0  0  0  0
 18 13  2  0  0  0  0
 18 17  1  0  0  0  0
 19 29  1  0  0  0  0
 19 27  1  0  0  0  0
 20  9  1  0  0  0  0
 21 10  1  0  0  0  0
 25 17  1  0  0  0  0
 26 18  1  0  0  0  0
 28 19  1  0  0  0  0
M  CHG  2   1  -1   3  -1
M  END
