1,3,4
q = -2.0, confidence = 0.83

 39 40  0  0  0  0  0  0  0  0999 V2000
   -0.2369   -1.9940    0.3758 N   0  0  0  0  0  2  0  0  0  0  0  0
    1.0805   -2.2307    0.6130 N   0  0  0  0  0  0  0  0  0  0  0  0
   -2.3620   -0.5589   -0.2793 O   0  5  0  0  0  0  0  0  0  0  0  0
    1.2532   -0.4698   -0.8447 O   0  5  0  0  0  0  0  0  0  0  0  0
   -4.9854   -0.2253   -0.3772 O   0  0  0  0  0  0  0  0  0  0  0  0
    7.4498   -1.6446    0.2142 O   0  0  0  0  0  0  0  0  0  0  0  0
   -2.5376   -2.6242    0.9147 C   0  0  0  0  0  0  0  0  0  0  0  0
   -3.1135   -1.4912    0.2710 C   0  0  0  0  0  0  0  0  0  0  0  0
   -4.5370   -1.3404    0.2518 C   0  0  0  0  0  0  0  0  0  0  0  0
   -5.3422   -2.3145    0.8608 C   0  0  0  0  0  0  0  0  0  0  0  0
   -6.4354   -2.2107    0.8457 H   0  0  0  0  0  0  0  0  0  0  0  0
   -4.7623   -3.4353    1.4981 C   0  0  0  0  0  0  0  0  0  0  0  0
   -5.4159   -4.1845    1.9680 H   0  0  0  0  0  0  0  0  0  0  0  0
   -3.3815   -3.5887    1.5325 C   0  0  0  0  0  0  0  0  0  0  0  0
   -2.9220   -4.4564    2.0294 H   0  0  0  0  0  0  0  0  0  0  0  0
   -1.1092   -2.7624    0.9896 C   0  0  0  0  0  3  0  0  0  0  0  0
   -0.6868   -3.5671    1.6186 H   0  0  0  0  0  0  0  0  0  0  0  0
    1.8135   -1.3783   -0.0839 C   0  0  0  0  0  0  0  0  0  0  0  0
    3.2813   -1.4340   -0.0159 C   0  0  0  0  0  0  0  0  0  0  0  0
    3.9391   -2.3879    0.7981 C   0  0  0  0  0  0  0  0  0  0  0  0
    3.3277   -3.0898    1.3826 H   0  0  0  0  0  0  0  0  0  0  0  0
    5.3284   -2.4313    0.8536 C   0  0  0  0  0  0  0  0  0  0  0  0
    5.8566   -3.1648    1.4797 H   0  0  0  0  0  0  0  0  0  0  0  0
    6.1019   -1.5212    0.0940 C   0  0  0  0  0  0  0  0  0  0  0  0
    5.4561   -0.5662   -0.7205 C   0  0  0  0  0  0  0  0  0  0  0  0
    6.0343    0.1494   -1.3200 H   0  0  0  0  0  0  0  0  0  0  0  0
    4.0568   -0.5304   -0.7679 C   0  0  0  0  0  0  0  0  0  0  0  0
    3.5394    0.2065   -1.3989 H   0  0  0  0  0  0  0  0  0  0  0  0
   -6.3888   -0.0037   -0.4507 C   0  0  0  0  0  0  0  0  0  0  0  0
   -6.8203    0.0489    0.5770 H   0  0  0  0  0  0  0  0  0  0  0  0
   -6.8821   -0.8590   -0.9705 H   0  0  0  0  0  0  0  0  0  0  0  0
   -6.6163    1.2934   -1.2034 C   0  0  0  0  0  0  0  0  0  0  0  0
   -6.1306    2.1394   -0.6785 H   0  0  0  0  0  0  0  0  0  0  0  0
   -7.7005    1.5053   -1.2856 H   0  0  0  0  0  0  0  0  0  0  0  0
   -6.1906    1.2314   -2.2242 H   0  0  0  0  0  0  0  0  0  0  0  0
    8.2777   -0.7673   -0.5260 C   0  0  0  0  0  0  0  0  0  0  0  0
    8.1204   -0.8751   -1.6226 H   0  0  0  0  0  0  0  0  0  0  0  0
    9.3210   -1.0424   -0.2838 H   0  0  0  0  0  0  0  0  0  0  0  0
    8.1099    0.2969   -0.2457 H   0  0  0  0  0  0  0  0  0  0  0  0
  1  2  1  0  0  0  0
  1 16  1  0  0  0  0
  3  8  1  0  0  0  0
  4 18  1  0  0  0  0
  5  9  1  0  0  0  0
  7 16  1  0  0  0  0
  7 14  1  0  0  0  0
  8  7  2  0  0  0  0
  9  8  1  0  0  0  0
  9 10  2  0  0  0  0
 10 12  1  0  0  0  0
 11 10  1  0  0  0  0
 12 14  2  0  0  0  0
 12 13  1  0  0  0  0
 14 15  1  0  0  0  0
 16 17  1  0  0  0  0
 18 19  1  0  0  0  0
 18  2  2  0  0  0  0
 19 20  1  0  0  0  0
 20 22  2  0  0  0  0
 20 21  1  0  0  0  0
 22 23  1  0  0  0  0
 24  6  1  0  0  0  0
 24 22  1  0  0  0  0
 25 24  2  0  0  0  0
 26 25  1  0  0  0  0
 27 25  1  0  0  0  0
 27 19  2  0  0  0  0
 28 27  1  0  0  0  0
 29  5  1  0  0  0  0
 29 30  1  0  0  0  0
 31 29  1  0  0  0  0
 32 33  1  0  0  0  0
 32 29  1  0  0  0  0
 34 32  1  0  0  0  0
 35 32  1  0  0  0  0
 36 38  1  0  0  0  0
 36 39  1  0  0  0  0
 36  6  1  0  0  0  0
 37 36  1  0  0  0  0
M  CHG  2   3  -1   4  -1
M  END
