1,3,4
q = -2.0, confidence = 0.984

 32 32  0  0  1  0  0  0  0  0999 V2000
   -1.4583   -1.0109    0.9120 O   0  5  0  0  0  0  0  0  0  0  0  0
    3.5188   -0.2776   -1.9342 O   0  5  0  0  0  0  0  0  0  0  0  0
    1.9219   -1.5353   -0.9425 O   0  0  0  0  0  0  0  0  0  0  0  0
    0.2424    0.3608   -0.6642 N   0  0  0  0  0  2  0  0  0  0  0  0
   -0.8119    1.0530   -0.9865 C   0  0  0  0  0  3  0  0  0  0  0  0
   -0.6810    1.9498   -1.6360 H   0  0  0  0  0  0  0  0  0  0  0  0
   -2.1518    0.7858   -0.5369 C   0  0  0  0  0  0  0  0  0  0  0  0
   -3.2211    1.6001   -0.9898 C   0  0  0  0  0  0  0  0  0  0  0  0
   -3.0029    2.3698   -1.7501 H   0  0  0  0  0  0  0  0  0  0  0  0
   -4.5131    1.4514   -0.4917 C   0  0  0  0  0  0  0  0  0  0  0  0
   -5.3344    2.0852   -0.8582 H   0  0  0  0  0  0  0  0  0  0  0  0
   -4.7473    0.4736    0.5075 C   0  0  0  0  0  0  0  0  0  0  0  0
   -5.7640    0.3489    0.9160 H   0  0  0  0  0  0  0  0  0  0  0  0
   -3.7206   -0.3358    0.9820 C   0  0  0  0  0  0  0  0  0  0  0  0
   -3.8957   -1.0994    1.7543 H   0  0  0  0  0  0  0  0  0  0  0  0
   -2.3853   -0.2348    0.4648 C   0  0  0  0  0  0  0  0  0  0  0  0
    1.5539    0.8193   -1.0755 C   0  0  2  0  0  0  0  0  0  0  0  0
    1.4925    1.4329   -2.0051 H   0  0  0  0  0  0  0  0  0  0  0  0
    2.4323   -0.4220   -1.3726 C   0  0  0  0  0  0  0  0  0  0  0  0
    2.2486    1.6918    0.0101 C   0  0  1  0  0  0  0  0  0  0  0  0
    3.2777    1.8290   -0.3927 H   0  0  0  0  0  0  0  0  0  0  0  0
    1.5790    3.0634    0.1411 C   0  0  0  0  0  0  0  0  0  0  0  0
    0.5432    2.9686    0.5309 H   0  0  0  0  0  0  0  0  0  0  0  0
    1.5267    3.5855   -0.8372 H   0  0  0  0  0  0  0  0  0  0  0  0
    2.1346    3.7205    0.8406 H   0  0  0  0  0  0  0  0  0  0  0  0
    2.3488    0.9570    1.3596 C   0  0  0  0  0  0  0  0  0  0  0  0
    1.3305    0.8501    1.7921 H   0  0  0  0  0  0  0  0  0  0  0  0
    2.6880   -0.0849    1.1870 H   0  0  0  0  0  0  0  0  0  0  0  0
    3.2784    1.6261    2.3725 C   0  0  0  0  0  0  0  0  0  0  0  0
    4.3062    1.7350    1.9643 H   0  0  0  0  0  0  0  0  0  0  0  0
    3.3505    1.0236    3.3008 H   0  0  0  0  0  0  0  0  0  0  0  0
    2.9306    2.6393    2.6655 H   0  0  0  0  0  0  0  0  0  0  0  0
  2 19  1  0  0  0  0
  5  4  1  0  0  0  0
  5  7  1  0  0  0  0
  6  5  1  0  0  0  0
  7 16  1  0  0  0  0
  8  7  2  0  0  0  0
  8 10  1  0  0  0  0
  9  8  1  0  0  0  0
 10 12  2  0  0  0  0
 11 10  1  0  0  0  0
 12 13  1  0  0  0  0
 12 14  1  0  0  0  0
 14 15  1  0  0  0  0
 16  1  1  0  0  0  0
 16 14  2  0  0  0  0
 17 18  1  6  0  0  0
 17  4  1  0  0  0  0
 17 20  1  0  0  0  0
 19 17  1  0  0  0  0
 19  3  2  0  0  0  0
 20 21  1  6  0  0  0
 20 22  1  0  0  0  0
 20 26  1  0  0  0  0
 22 23  1  0  0  0  0
 22 25  1  0  0  0  0
 24 22  1  0  0  0  0
 26 27  1  0  0  0  0
 26 29  1  0  0  0  0
 28 26  1  0  0  0  0
 29 32  1  0  0  0  0
 29 31  1  0  0  0  0
 30 29  1  0  0  0  0
M  CHG  2   1  -1   2  -1
M  END
