1,6,12
q = -2.0, confidence = 0.764

 27 27  0  0  0  0  0  0  0  0999 V2000
   -1.5591   -0.0217   -0.8098 N   0  0  0  0  0  0  0  0  0  0  0  0
   -1.9827    1.1650   -1.5914 C   0  0  0  0  0  0  0  0  0  0  0  0
   -3.0706    1.3551   -1.5086 H   0  0  0  0  0  0  0  0  0  0  0  0
   -1.7472    0.9814   -2.6593 H   0  0  0  0  0  0  0  0  0  0  0  0
   -1.1546    2.3747   -1.1298 C   0  0  0  0  0  0  0  0  0  0  0  0
    0.0487    2.0085   -0.6904 O   0  5  0  0  0  0  0  0  0  0  0  0
   -1.5427    3.5247   -1.1969 O   0  0  0  0  0  0  0  0  0  0  0  0
   -1.7334   -1.3222   -1.4956 C   0  0  0  0  0  0  0  0  0  0  0  0
   -1.4747   -1.1948   -2.5666 H   0  0  0  0  0  0  0  0  0  0  0  0
   -2.7762   -1.6925   -1.4370 H   0  0  0  0  0  0  0  0  0  0  0  0
   -0.7459   -2.3270   -0.8869 C   0  0  0  0  0  0  0  0  0  0  0  0
    0.3572   -1.7174   -0.4360 O   0  5  0  0  0  0  0  0  0  0  0  0
   -0.9291   -3.5277   -0.8446 O   0  0  0  0  0  0  0  0  0  0  0  0
   -2.1410   -0.0391    0.5911 C   0  0  0  0  0  0  0  0  0  0  0  0
   -1.7480    0.8517    1.1265 H   0  0  0  0  0  0  0  0  0  0  0  0
   -1.6790   -0.9061    1.1005 H   0  0  0  0  0  0  0  0  0  0  0  0
   -3.6448   -0.1177    0.6435 C   0  0  0  0  0  0  0  0  0  0  0  0
   -4.4178    1.0625    0.6717 C   0  0  0  0  0  0  0  0  0  0  0  0
   -3.9120    2.0413    0.6805 H   0  0  0  0  0  0  0  0  0  0  0  0
   -5.8185    0.9961    0.7027 C   0  0  0  0  0  0  0  0  0  0  0  0
   -6.4089    1.9244    0.7267 H   0  0  0  0  0  0  0  0  0  0  0  0
   -6.4641   -0.2507    0.7146 C   0  0  0  0  0  0  0  0  0  0  0  0
   -7.5630   -0.3023    0.7424 H   0  0  0  0  0  0  0  0  0  0  0  0
   -5.7049   -1.4317    0.7055 C   0  0  0  0  0  0  0  0  0  0  0  0
   -6.2058   -2.4111    0.7316 H   0  0  0  0  0  0  0  0  0  0  0  0
   -4.3041   -1.3648    0.6731 C   0  0  0  0  0  0  0  0  0  0  0  0
   -3.7102   -2.2934    0.6851 H   0  0  0  0  0  0  0  0  0  0  0  0
  1 14  1  0  0  0  0
  2  3  1  0  0  0  0
  2  5  1  0  0  0  0
  2  1  1  0  0  0  0
  4  2  1  0  0  0  0
  5  6  1  0  0  0  0
  7  5  2  0  0  0  0
  8 10  1  0  0  0  0
  8 11  1  0  0  0  0
  8  1  1  0  0  0  0
  9  8  1  0  0  0  0
 11 13  2  0  0  0  0
 11 12  1  0  0  0  0
 14 17  1  0  0  0  0
 14 16  1  0  0  0  0
 14 15  1  0  0  0  0
 17 18  2  0  0  0  0
 17 26  1  0  0  0  0
 18 19  1  0  0  0  0
 18 20  1  0  0  0  0
 20 22  2  0  0  0  0
 20 21  1  0  0  0  0
 22 23  1  0  0  0  0
 24 22  1  0  0  0  0
 24 25  1  0  0  0  0
 26 27  1  0  0  0  0
 26 24  2  0  0  0  0
M  CHG  2   6  -1  12  -1
M  END
