1,22,36
q = -2.0, confidence = 0.858

 36 37  0  0  1  0  0  0  0  0999 V2000
    1.7228   -1.2696   -0.3422 O   0  5  0  0  0  0  0  0  0  0  0  0
    2.9083   -0.6921   -0.1712 C   0  0  0  0  0  0  0  0  0  0  0  0
    3.0168    0.7073    0.1327 C   0  0  0  0  0  0  0  0  0  0  0  0
    5.4665    0.4625    0.2303 C   0  0  0  0  0  0  0  0  0  0  0  0
    4.3091    1.2487    0.3263 C   0  0  0  0  0  0  0  0  0  0  0  0
    4.4516    2.3173    0.5332 H   0  0  0  0  0  0  0  0  0  0  0  0
    4.0762   -1.4783   -0.2348 C   0  0  0  0  0  0  0  0  0  0  0  0
    3.9600   -2.5495   -0.4516 H   0  0  0  0  0  0  0  0  0  0  0  0
    5.3434   -0.9183   -0.0437 C   0  0  0  0  0  0  0  0  0  0  0  0
    6.2292   -1.5633   -0.1168 H   0  0  0  0  0  0  0  0  0  0  0  0
    7.8471    0.3678    0.3148 C   0  0  0  0  0  0  0  0  0  0  0  0
    7.9022   -0.4407    1.0792 H   0  0  0  0  0  0  0  0  0  0  0  0
    8.6765    1.0785    0.4876 H   0  0  0  0  0  0  0  0  0  0  0  0
    7.9697   -0.0893   -0.6935 H   0  0  0  0  0  0  0  0  0  0  0  0
    6.6514    1.1141    0.4166 O   0  0  0  0  0  0  0  0  0  0  0  0
    1.8213    1.5294    0.3009 C   0  0  2  0  0  3  0  0  0  0  0  0
    1.8721    2.8595    1.0001 C   0  0  0  0  0  0  0  0  0  0  0  0
    1.5202    3.6652    0.3232 H   0  0  0  0  0  0  0  0  0  0  0  0
    2.8787    3.1058    1.3729 H   0  0  0  0  0  0  0  0  0  0  0  0
    1.1698    2.8566    1.8591 H   0  0  0  0  0  0  0  0  0  0  0  0
   -0.4350    1.9067    0.0666 N   0  0  0  0  0  0  0  0  0  0  0  0
    0.6476    1.1119   -0.1515 N   0  0  0  0  0  2  0  0  0  0  0  0
   -1.5218    1.4346   -0.5557 C   0  0  0  0  0  0  0  0  0  0  0  0
   -2.7699    2.1882   -0.4430 C   0  0  0  0  0  0  0  0  0  0  0  0
   -3.9440    1.6955   -1.0600 C   0  0  0  0  0  0  0  0  0  0  0  0
   -3.8690    0.7485   -1.6141 H   0  0  0  0  0  0  0  0  0  0  0  0
   -2.8165    3.4200    0.2921 C   0  0  0  0  0  0  0  0  0  0  0  0
   -4.0488    4.1101    0.3761 C   0  0  0  0  0  0  0  0  0  0  0  0
   -4.0699    5.0532    0.9409 H   0  0  0  0  0  0  0  0  0  0  0  0
   -5.1916    3.6016   -0.2428 C   0  0  0  0  0  0  0  0  0  0  0  0
   -6.1385    4.1581   -0.1633 H   0  0  0  0  0  0  0  0  0  0  0  0
   -5.1489    2.3897   -0.9659 C   0  0  0  0  0  0  0  0  0  0  0  0
   -6.0555    1.9986   -1.4497 H   0  0  0  0  0  0  0  0  0  0  0  0
   -1.7439    3.9378    0.8991 O   0  0  0  0  0  0  0  0  0  0  0  0
   -0.9791    3.2850    0.7190 H   0  0  0  0  0  0  0  0  0  0  0  0
   -1.4661    0.3328   -1.2373 O   0  5  0  0  0  0  0  0  0  0  0  0
  1  2  1  0  0  0  0
  2  3  1  0  0  0  0
  3 16  1  0  0  0  0
  3  5  2  0  0  0  0
  4  5  1  0  0  0  0
  4 15  1  0  0  0  0
  5  6  1  0  0  0  0
  7  2  2  0  0  0  0
  7  9  1  0  0  0  0
  8  7  1  0  0  0  0
  9  4  2  0  0  0  0
 10  9  1  0  0  0  0
 11 15  1  0  0  0  0
 11 13  1  0  0  0  0
 11 12  1  0  0  0  0
 14 11  1  0  0  0  0
 16 22  1  1  0  0  0
 16 17  1  0  0  0  0
 17 19  1  0  0  0  0
 17 20  1  0  0  0  0
 18 17  1  0  0  0  0
 22 21  1  0  0  0  0
 23 24  1  0  0  0  0
 23 21  2  0  0  0  0
 24 27  1  0  0  0  0
 25 32  1  0  0  0  0
 25 24  2  0  0  0  0
 26 25  1  0  0  0  0
 27 28  2  0  0  0  0
 27 34  1  0  0  0  0
 28 29  1  0  0  0  0
 30 31  1  0  0  0  0
 30 28  1  0  0  0  0
 32 30  2  0  0  0  0
 33 32  1  0  0  0  0
 35 34  1  0  0  0  0
 36 23  1  0  0  0  0
M  CHG  2   1  -1  36  -1
M  END
