3,5,6
q = -2.0, confidence = 0.952

 36 37  0  0  0  0  0  0  0  0999 V2000
    3.7464   -3.1481   -1.7365 Cl  0  0  0  0  0  0  0  0  0  0  0  0
    6.1865    0.5699    1.3917 Cl  0  0  0  0  0  0  0  0  0  0  0  0
   -2.5933   -2.0304    0.5643 N   0  0  0  0  0  2  0  0  0  0  0  0
   -1.6604   -3.0330    0.6362 N   0  0  0  0  0  0  0  0  0  0  0  0
   -3.4186    0.4501    0.1128 O   0  5  0  0  0  0  0  0  0  0  0  0
   -0.3988   -1.2798    1.4296 O   0  5  0  0  0  0  0  0  0  0  0  0
   -5.3552    2.1689   -0.4262 O   0  0  0  0  0  0  0  0  0  0  0  0
    1.6717   -3.0928    0.2579 O   0  0  0  0  0  0  0  0  0  0  0  0
   -4.6223   -0.0409   -0.0920 C   0  0  0  0  0  0  0  0  0  0  0  0
   -5.6951    0.8556   -0.4083 C   0  0  0  0  0  0  0  0  0  0  0  0
   -6.9733    0.3413   -0.6658 C   0  0  0  0  0  0  0  0  0  0  0  0
   -7.2153   -1.0521   -0.6329 C   0  0  0  0  0  0  0  0  0  0  0  0
   -6.1841   -1.9362   -0.3448 C   0  0  0  0  0  0  0  0  0  0  0  0
   -4.8786   -1.4447   -0.0606 C   0  0  0  0  0  0  0  0  0  0  0  0
   -3.8013   -2.3643    0.1727 C   0  0  0  0  0  3  0  0  0  0  0  0
   -6.3641    3.1114   -0.7272 C   0  0  0  0  0  0  0  0  0  0  0  0
   -0.5376   -2.5334    1.1006 C   0  0  0  0  0  0  0  0  0  0  0  0
    0.6627   -3.4415    1.2108 C   0  0  0  0  0  0  0  0  0  0  0  0
    2.6526   -2.2145    0.5825 C   0  0  0  0  0  0  0  0  0  0  0  0
    2.6689   -1.3857    1.7222 C   0  0  0  0  0  0  0  0  0  0  0  0
    3.7564   -0.5396    1.9823 C   0  0  0  0  0  0  0  0  0  0  0  0
    4.8326   -0.4950    1.0855 C   0  0  0  0  0  0  0  0  0  0  0  0
    4.8305   -1.2842   -0.0754 C   0  0  0  0  0  0  0  0  0  0  0  0
    3.7480   -2.1372   -0.3181 C   0  0  0  0  0  0  0  0  0  0  0  0
   -7.8018    1.0240   -0.8983 H   0  0  0  0  0  0  0  0  0  0  0  0
   -8.2277   -1.4272   -0.8412 H   0  0  0  0  0  0  0  0  0  0  0  0
   -6.3600   -3.0221   -0.3247 H   0  0  0  0  0  0  0  0  0  0  0  0
   -3.9725   -3.4420   -0.0055 H   0  0  0  0  0  0  0  0  0  0  0  0
   -5.8840    4.1067   -0.6898 H   0  0  0  0  0  0  0  0  0  0  0  0
   -7.1941    3.0823    0.0149 H   0  0  0  0  0  0  0  0  0  0  0  0
   -6.7910    2.9530   -1.7436 H   0  0  0  0  0  0  0  0  0  0  0  0
    0.3455   -4.4681    0.9530 H   0  0  0  0  0  0  0  0  0  0  0  0
    1.0747   -3.4287    2.2431 H   0  0  0  0  0  0  0  0  0  0  0  0
    1.7966   -1.3612    2.3882 H   0  0  0  0  0  0  0  0  0  0  0  0
    3.7527    0.1084    2.8690 H   0  0  0  0  0  0  0  0  0  0  0  0
    5.6666   -1.2473   -0.7854 H   0  0  0  0  0  0  0  0  0  0  0  0
  1 24  1  0  0  0  0
  3  4  1  0  0  0  0
  4 17  2  0  0  0  0
  7 10  1  0  0  0  0
  8 19  1  0  0  0  0
  8 18  1  0  0  0  0
  9 14  1  0  0  0  0
  9  5  1  0  0  0  0
 10  9  2  0  0  0  0
 11 12  2  0  0  0  0
 11 10  1  0  0  0  0
 12 13  1  0  0  0  0
 13 27  1  0  0  0  0
 13 14  2  0  0  0  0
 14 15  1  0  0  0  0
 15  3  1  0  0  0  0
 16 29  1  0  0  0  0
 16  7  1  0  0  0  0
 16 30  1  0  0  0  0
 17 18  1  0  0  0  0
 17  6  1  0  0  0  0
 18 33  1  0  0  0  0
 19 20  1  0  0  0  0
 20 21  2  0  0  0  0
 20 34  1  0  0  0  0
 21 35  1  0  0  0  0
 22  2  1  0  0  0  0
 22 21  1  0  0  0  0
 23 22  2  0  0  0  0
 24 23  1  0  0  0  0
 24 19  2  0  0  0  0
 25 11  1  0  0  0  0
 26 12  1  0  0  0  0
 28 15  1  0  0  0  0
 31 16  1  0  0  0  0
 32 18  1  0  0  0  0
 36 23  1  0  0  0  0
M  CHG  2   5  -1   6  -1
M  END
