3,5,6
q = -2.0, confidence = 0.94

 31 32  0  0  0  0  0  0  0  0999 V2000
   -4.1124   -1.9417    0.1116 Br  0  0  0  0  0  0  0  0  0  0  0  0
   -5.4331    3.4688   -0.1619 Cl  0  0  0  0  0  0  0  0  0  0  0  0
    0.5428    1.1505   -0.0633 N   0  0  0  0  0  2  0  0  0  0  0  0
    1.7907    1.6717    0.0492 N   0  0  0  0  0  0  0  0  0  0  0  0
   -1.3289   -0.7622    0.0637 O   0  5  0  0  0  0  0  0  0  0  0  0
    2.3327   -0.5562   -0.1795 O   0  5  0  0  0  0  0  0  0  0  0  0
   -1.8535    1.5832   -0.0600 C   0  0  0  0  0  0  0  0  0  0  0  0
   -2.2244    0.1992   -0.0112 C   0  0  0  0  0  0  0  0  0  0  0  0
   -3.6115   -0.1155    0.0066 C   0  0  0  0  0  0  0  0  0  0  0  0
   -4.5935    0.8776   -0.0414 C   0  0  0  0  0  0  0  0  0  0  0  0
   -5.6573    0.6063   -0.0319 H   0  0  0  0  0  0  0  0  0  0  0  0
   -4.2045    2.2311   -0.0990 C   0  0  0  0  0  0  0  0  0  0  0  0
   -2.8554    2.5845   -0.1000 C   0  0  0  0  0  0  0  0  0  0  0  0
   -2.5649    3.6440   -0.1338 H   0  0  0  0  0  0  0  0  0  0  0  0
   -0.4687    1.9813   -0.0088 C   0  0  0  0  0  3  0  0  0  0  0  0
   -0.2289    3.0566    0.0894 H   0  0  0  0  0  0  0  0  0  0  0  0
    2.6862    0.7012   -0.0412 C   0  0  0  0  0  0  0  0  0  0  0  0
    4.1258    1.0208    0.0317 C   0  0  0  0  0  0  0  0  0  0  0  0
    5.0763   -0.0138   -0.0994 C   0  0  0  0  0  0  0  0  0  0  0  0
    4.7127   -1.0397   -0.2603 H   0  0  0  0  0  0  0  0  0  0  0  0
    6.4547    0.2502   -0.0329 C   0  0  0  0  0  0  0  0  0  0  0  0
    6.8676    1.5845    0.1728 C   0  0  0  0  0  0  0  0  0  0  0  0
    7.9440    1.8131    0.2303 H   0  0  0  0  0  0  0  0  0  0  0  0
    5.9298    2.6208    0.3037 C   0  0  0  0  0  0  0  0  0  0  0  0
    6.2751    3.6537    0.4629 H   0  0  0  0  0  0  0  0  0  0  0  0
    4.5591    2.3484    0.2334 C   0  0  0  0  0  0  0  0  0  0  0  0
    3.8061    3.1424    0.3328 H   0  0  0  0  0  0  0  0  0  0  0  0
    7.4710   -0.8541   -0.1862 C   0  0  0  0  0  0  0  0  0  0  0  0
    8.0792   -0.7142   -1.1045 H   0  0  0  0  0  0  0  0  0  0  0  0
    6.9870   -1.8474   -0.2516 H   0  0  0  0  0  0  0  0  0  0  0  0
    8.1797   -0.8733    0.6674 H   0  0  0  0  0  0  0  0  0  0  0  0
  2 12  1  0  0  0  0
  3 15  1  0  0  0  0
  3  4  1  0  0  0  0
  6 17  1  0  0  0  0
  7  8  1  0  0  0  0
  7 15  1  0  0  0  0
  8  9  2  0  0  0  0
  8  5  1  0  0  0  0
  9  1  1  0  0  0  0
 10 11  1  0  0  0  0
 10  9  1  0  0  0  0
 12 10  2  0  0  0  0
 13 12  1  0  0  0  0
 13  7  2  0  0  0  0
 14 13  1  0  0  0  0
 15 16  1  0  0  0  0
 17 18  1  0  0  0  0
 17  4  2  0  0  0  0
 18 26  1  0  0  0  0
 19 21  1  0  0  0  0
 19 18  2  0  0  0  0
 20 19  1  0  0  0  0
 21 22  2  0  0  0  0
 22 23  1  0  0  0  0
 22 24  1  0  0  0  0
 24 25  1  0  0  0  0
 26 24  2  0  0  0  0
 26 27  1  0  0  0  0
 28 21  1  0  0  0  0
 28 31  1  0  0  0  0
 29 28  1  0  0  0  0
 30 28  1  0  0  0  0
M  CHG  2   5  -1   6  -1
M  END
