1,2,3
q = -2.0, confidence = 0.914

 71 71  0  0  1  0  0  0  0  0999 V2000
    1.4951   -0.5206    0.5550 O   0  0  0  0  0  1  0  0  0  0  0  0
   -1.4965   -0.5233    0.5530 O   0  0  0  0  0  1  0  0  0  0  0  0
    0.0000    0.9846   -1.1068 N   0  0  0  0  0  2  0  0  0  0  0  0
    1.1795    1.6069   -1.3642 C   0  0  2  0  0  3  0  0  0  0  0  0
    1.2019    2.8833   -1.9569 C   0  0  0  0  0  0  0  0  0  0  0  0
    0.0005    3.5235   -2.2687 C   0  0  0  0  0  0  0  0  0  0  0  0
   -1.2012    2.8840   -1.9561 C   0  0  0  0  0  0  0  0  0  0  0  0
   -1.1792    1.6075   -1.3636 C   0  0  0  0  0  0  0  0  0  0  0  0
    2.4846    0.8922   -1.1097 C   0  0  0  0  0  0  0  0  0  0  0  0
    2.7069    0.1387    0.2436 C   0  0  0  0  0  0  0  0  0  0  0  0
    3.8175   -1.0000   -0.0248 C   0  0  0  0  0  0  0  0  0  0  0  0
    3.2207   -2.1102   -0.9196 C   0  0  0  0  0  0  0  0  0  0  0  0
    4.2622   -1.7107    1.2676 C   0  0  0  0  0  0  0  0  0  0  0  0
    5.0641   -0.4586   -0.7617 C   0  0  0  0  0  0  0  0  0  0  0  0
    2.9734    1.1557    1.4577 C   0  0  0  0  0  0  0  0  0  0  0  0
    1.9926    2.3439    1.3645 C   0  0  0  0  0  0  0  0  0  0  0  0
    4.3927    1.7512    1.4735 C   0  0  0  0  0  0  0  0  0  0  0  0
    2.6866    0.4920    2.8249 C   0  0  0  0  0  0  0  0  0  0  0  0
   -2.4847    0.8937   -1.1087 C   0  0  0  0  0  0  0  0  0  0  0  0
   -2.7070    0.1392    0.2439 C   0  0  0  0  0  0  0  0  0  0  0  0
   -3.8200   -0.9972   -0.0247 C   0  0  0  0  0  0  0  0  0  0  0  0
   -4.2658   -1.7078    1.2673 C   0  0  0  0  0  0  0  0  0  0  0  0
   -3.2254   -2.1080   -0.9203 C   0  0  0  0  0  0  0  0  0  0  0  0
   -5.0659   -0.4528   -0.7608 C   0  0  0  0  0  0  0  0  0  0  0  0
   -2.9703    1.1551    1.4596 C   0  0  0  0  0  0  0  0  0  0  0  0
   -2.6845    0.4889    2.8258 C   0  0  0  0  0  0  0  0  0  0  0  0
   -4.3881    1.7541    1.4767 C   0  0  0  0  0  0  0  0  0  0  0  0
   -1.9863    2.3407    1.3673 C   0  0  0  0  0  0  0  0  0  0  0  0
    2.1697    3.3597   -2.1685 H   0  0  0  0  0  0  0  0  0  0  0  0
    0.0006    4.5168   -2.7422 H   0  0  0  0  0  0  0  0  0  0  0  0
   -2.1689    3.3611   -2.1671 H   0  0  0  0  0  0  0  0  0  0  0  0
    3.3099    1.6085   -1.2773 H   0  0  0  0  0  0  0  0  0  0  0  0
    2.5621    0.1312   -1.9145 H   0  0  0  0  0  0  0  0  0  0  0  0
    2.4257   -2.6805   -0.4024 H   0  0  0  0  0  0  0  0  0  0  0  0
    4.0246   -2.8279   -1.1791 H   0  0  0  0  0  0  0  0  0  0  0  0
    2.8022   -1.7406   -1.8760 H   0  0  0  0  0  0  0  0  0  0  0  0
    4.8702   -1.0684    1.9318 H   0  0  0  0  0  0  0  0  0  0  0  0
    4.8897   -2.5845    0.9984 H   0  0  0  0  0  0  0  0  0  0  0  0
    3.3885   -2.0902    1.8310 H   0  0  0  0  0  0  0  0  0  0  0  0
    5.5739    0.3638   -0.2310 H   0  0  0  0  0  0  0  0  0  0  0  0
    4.8274   -0.1135   -1.7874 H   0  0  0  0  0  0  0  0  0  0  0  0
    5.7975   -1.2835   -0.8684 H   0  0  0  0  0  0  0  0  0  0  0  0
    0.9463    1.9982    1.2793 H   0  0  0  0  0  0  0  0  0  0  0  0
    2.2079    3.0177    0.5142 H   0  0  0  0  0  0  0  0  0  0  0  0
    2.0672    2.9528    2.2877 H   0  0  0  0  0  0  0  0  0  0  0  0
    5.1730    1.0007    1.6987 H   0  0  0  0  0  0  0  0  0  0  0  0
    4.4477    2.5260    2.2658 H   0  0  0  0  0  0  0  0  0  0  0  0
    4.6525    2.2486    0.5169 H   0  0  0  0  0  0  0  0  0  0  0  0
    3.4178   -0.2852    3.0995 H   0  0  0  0  0  0  0  0  0  0  0  0
    1.6793    0.0350    2.8362 H   0  0  0  0  0  0  0  0  0  0  0  0
    2.7206    1.2697    3.6146 H   0  0  0  0  0  0  0  0  0  0  0  0
   -2.5634    0.1334   -1.9140 H   0  0  0  0  0  0  0  0  0  0  0  0
   -3.3095    1.6109   -1.2751 H   0  0  0  0  0  0  0  0  0  0  0  0
   -4.8724   -1.0648    1.9320 H   0  0  0  0  0  0  0  0  0  0  0  0
   -3.3928   -2.0895    1.8303 H   0  0  0  0  0  0  0  0  0  0  0  0
   -4.8951   -2.5803    0.9976 H   0  0  0  0  0  0  0  0  0  0  0  0
   -2.8062   -1.7386   -1.8764 H   0  0  0  0  0  0  0  0  0  0  0  0
   -4.0308   -2.8241   -1.1801 H   0  0  0  0  0  0  0  0  0  0  0  0
   -2.4313   -2.6799   -0.4035 H   0  0  0  0  0  0  0  0  0  0  0  0
   -4.8290   -0.1082   -1.7866 H   0  0  0  0  0  0  0  0  0  0  0  0
   -5.5732    0.3707   -0.2296 H   0  0  0  0  0  0  0  0  0  0  0  0
   -5.8013   -1.2760   -0.8670 H   0  0  0  0  0  0  0  0  0  0  0  0
   -3.4184   -0.2857    3.1004 H   0  0  0  0  0  0  0  0  0  0  0  0
   -2.7148    1.2660    3.6163 H   0  0  0  0  0  0  0  0  0  0  0  0
   -1.6789    0.0282    2.8356 H   0  0  0  0  0  0  0  0  0  0  0  0
   -4.6470    2.2536    0.5209 H   0  0  0  0  0  0  0  0  0  0  0  0
   -4.4410    2.5278    2.2701 H   0  0  0  0  0  0  0  0  0  0  0  0
   -5.1701    1.0051    1.7009 H   0  0  0  0  0  0  0  0  0  0  0  0
   -2.2001    3.0161    0.5180 H   0  0  0  0  0  0  0  0  0  0  0  0
   -0.9410    1.9920    1.2812 H   0  0  0  0  0  0  0  0  0  0  0  0
   -2.0587    2.9488    2.2913 H   0  0  0  0  0  0  0  0  0  0  0  0
  4  9  1  6  0  0  0
  4  3  1  0  0  0  0
  5  4  1  0  0  0  0
  6  5  2  0  0  0  0
  6  7  1  0  0  0  0
  7  8  2  0  0  0  0
  8 19  1  0  0  0  0
  8  3  1  0  0  0  0
  9 10  1  0  0  0  0
 10  1  1  0  0  0  0
 10 15  1  0  0  0  0
 11 10  1  0  0  0  0
 11 13  1  0  0  0  0
 12 34  1  0  0  0  0
 12 11  1  0  0  0  0
 13 39  1  0  0  0  0
 13 37  1  0  0  0  0
 14 40  1  0  0  0  0
 14 11  1  0  0  0  0
 15 17  1  0  0  0  0
 15 18  1  0  0  0  0
 16 15  1  0  0  0  0
 16 45  1  0  0  0  0
 17 46  1  0  0  0  0
 17 47  1  0  0  0  0
 18 50  1  0  0  0  0
 18 49  1  0  0  0  0
 18 51  1  0  0  0  0
 19 20  1  0  0  0  0
 20  2  1  0  0  0  0
 20 25  1  0  0  0  0
 21 20  1  0  0  0  0
 21 22  1  0  0  0  0
 22 55  1  0  0  0  0
 22 54  1  0  0  0  0
 23 59  1  0  0  0  0
 23 21  1  0  0  0  0
 24 61  1  0  0  0  0
 24 21  1  0  0  0  0
 25 27  1  0  0  0  0
 25 26  1  0  0  0  0
 26 65  1  0  0  0  0
 26 63  1  0  0  0  0
 26 64  1  0  0  0  0
 27 68  1  0  0  0  0
 27 67  1  0  0  0  0
 28 25  1  0  0  0  0
 28 71  1  0  0  0  0
 29  5  1  0  0  0  0
 30  6  1  0  0  0  0
 31  7  1  0  0  0  0
 32  9  1  0  0  0  0
 33  9  1  0  0  0  0
 35 12  1  0  0  0  0
 36 12  1  0  0  0  0
 38 13  1  0  0  0  0
 41 14  1  0  0  0  0
 42 14  1  0  0  0  0
 43 16  1  0  0  0  0
 44 16  1  0  0  0  0
 48 17  1  0  0  0  0
 52 19  1  0  0  0  0
 53 19  1  0  0  0  0
 56 22  1  0  0  0  0
 57 23  1  0  0  0  0
 58 23  1  0  0  0  0
 60 24  1  0  0  0  0
 62 24  1  0  0  0  0
 66 27  1  0  0  0  0
 69 28  1  0  0  0  0
 70 28  1  0  0  0  0
M  END
