1,4,7
q = -2.0, confidence = 0.836

 34 35  0  0  1  0  0  0  0  0999 V2000
   -0.5157   -0.7342   -0.0996 N   0  0  0  0  0  2  0  0  0  0  0  0
    1.9410    0.8558    0.1191 C   0  0  0  0  0  0  0  0  0  0  0  0
   -1.6365   -1.5100   -0.0620 N   0  0  0  0  0  0  0  0  0  0  0  0
   -2.6553    0.5420   -0.3337 O   0  5  0  0  0  0  0  0  0  0  0  0
    3.1668    1.5385    0.1978 C   0  0  0  0  0  0  0  0  0  0  0  0
    3.1637    2.6306    0.3082 H   0  0  0  0  0  0  0  0  0  0  0  0
    0.8290    1.5529    0.1982 O   0  5  0  0  0  0  0  0  0  0  0  0
    4.3903    0.8516    0.1292 C   0  0  0  0  0  0  0  0  0  0  0  0
   -5.1225   -0.5948   -0.2536 O   0  0  0  0  0  0  0  0  0  0  0  0
    4.3855   -0.5862   -0.0195 C   0  0  0  0  0  0  0  0  0  0  0  0
    5.5303    1.5261    0.1969 O   0  0  0  0  0  0  0  0  0  0  0  0
    6.2603    0.8070    0.1186 H   0  0  0  0  0  0  0  0  0  0  0  0
    3.1457   -1.2506   -0.0766 C   0  0  0  0  0  0  0  0  0  0  0  0
    3.1503   -2.3426   -0.1843 H   0  0  0  0  0  0  0  0  0  0  0  0
    6.7476   -0.6541   -0.0375 O   0  0  0  0  0  0  0  0  0  0  0  0
    1.9071   -0.5855   -0.0131 C   0  0  0  0  0  0  0  0  0  0  0  0
    5.6668   -1.2872   -0.1000 C   0  0  0  0  0  0  0  0  0  0  0  0
    5.7107   -2.7916   -0.2612 C   0  0  0  0  0  0  0  0  0  0  0  0
    6.7667   -3.1127   -0.2964 H   0  0  0  0  0  0  0  0  0  0  0  0
    5.1998   -3.1085   -1.1930 H   0  0  0  0  0  0  0  0  0  0  0  0
    5.2010   -3.2997    0.5825 H   0  0  0  0  0  0  0  0  0  0  0  0
    0.6623   -1.3413   -0.0237 C   0  0  2  0  0  3  0  0  0  0  0  0
    0.7217   -2.8454    0.0493 C   0  0  0  0  0  0  0  0  0  0  0  0
   -0.2995   -3.2493    0.1423 H   0  0  0  0  0  0  0  0  0  0  0  0
    1.3371   -3.1761    0.9088 H   0  0  0  0  0  0  0  0  0  0  0  0
    1.1835   -3.2598   -0.8709 H   0  0  0  0  0  0  0  0  0  0  0  0
   -2.7122   -0.7571   -0.2068 C   0  0  0  0  0  0  0  0  0  0  0  0
   -4.0185   -1.4020   -0.1938 C   0  0  0  0  0  0  0  0  0  0  0  0
   -4.4085   -2.7300   -0.1203 C   0  0  0  0  0  0  0  0  0  0  0  0
   -3.7303   -3.5870   -0.0642 H   0  0  0  0  0  0  0  0  0  0  0  0
   -5.8362   -2.7276   -0.1385 C   0  0  0  0  0  0  0  0  0  0  0  0
   -6.5052   -3.5941   -0.0983 H   0  0  0  0  0  0  0  0  0  0  0  0
   -6.2130   -1.4025   -0.2201 C   0  0  0  0  0  0  0  0  0  0  0  0
   -7.1828   -0.8964   -0.2625 H   0  0  0  0  0  0  0  0  0  0  0  0
  1  3  1  0  0  0  0
  2  5  1  0  0  0  0
  2  7  1  0  0  0  0
  4 27  1  0  0  0  0
  5  6  1  0  0  0  0
  8 11  1  0  0  0  0
  8  5  2  0  0  0  0
  9 33  1  0  0  0  0
  9 28  1  0  0  0  0
 10  8  1  0  0  0  0
 12 11  1  0  0  0  0
 13 10  2  0  0  0  0
 13 16  1  0  0  0  0
 14 13  1  0  0  0  0
 16  2  2  0  0  0  0
 17 15  2  0  0  0  0
 17 10  1  0  0  0  0
 18 17  1  0  0  0  0
 18 21  1  0  0  0  0
 19 18  1  0  0  0  0
 20 18  1  0  0  0  0
 22  1  1  6  0  0  0
 22 16  1  0  0  0  0
 22 23  1  0  0  0  0
 23 24  1  0  0  0  0
 23 25  1  0  0  0  0
 26 23  1  0  0  0  0
 27 28  1  0  0  0  0
 27  3  2  0  0  0  0
 28 29  2  0  0  0  0
 29 30  1  0  0  0  0
 31 29  1  0  0  0  0
 31 32  1  0  0  0  0
 33 31  2  0  0  0  0
 34 33  1  0  0  0  0
M  CHG  2   4  -1   7  -1
M  END
