1,4,6
q = -2.0, confidence = 0.97

 35 37  0  0  1  0  0  0  0  0999 V2000
   -0.7151    0.7285    0.0989 O   0  5  0  0  0  0  0  0  0  0  0  0
   -2.4764   -3.0789   -0.1567 O   0  0  0  0  0  0  0  0  0  0  0  0
   -1.5133   -2.7628   -0.0512 H   0  0  0  0  0  0  0  0  0  0  0  0
    2.9794    0.5684   -0.0788 O   0  0  0  0  0  1  0  0  0  0  0  0
   -0.4415   -1.5497    0.1286 N   0  0  0  0  0  0  0  0  0  0  0  0
    0.8729   -1.1813    0.0823 N   0  0  0  0  0  2  0  0  0  0  0  0
   -1.2244   -0.4699    0.1173 C   0  0  0  0  0  0  0  0  0  0  0  0
   -3.5222    0.4493    0.1796 C   0  0  0  0  0  0  0  0  0  0  0  0
   -3.0590    1.4419    0.2848 H   0  0  0  0  0  0  0  0  0  0  0  0
   -2.6804   -0.6609    0.0942 C   0  0  0  0  0  0  0  0  0  0  0  0
   -3.2489   -1.9869   -0.0579 C   0  0  0  0  0  0  0  0  0  0  0  0
   -4.6380   -2.1192   -0.1136 C   0  0  0  0  0  0  0  0  0  0  0  0
   -5.0561   -3.1298   -0.2319 H   0  0  0  0  0  0  0  0  0  0  0  0
   -5.5012   -0.9974   -0.0214 C   0  0  0  0  0  0  0  0  0  0  0  0
   -4.9327    0.3249    0.1303 C   0  0  0  0  0  0  0  0  0  0  0  0
   -5.8026    1.4525    0.2221 C   0  0  0  0  0  0  0  0  0  0  0  0
   -5.3559    2.4528    0.3372 H   0  0  0  0  0  0  0  0  0  0  0  0
   -7.1786    1.2960    0.1684 C   0  0  0  0  0  0  0  0  0  0  0  0
   -7.8401    2.1724    0.2404 H   0  0  0  0  0  0  0  0  0  0  0  0
   -7.7398   -0.0037    0.0197 C   0  0  0  0  0  0  0  0  0  0  0  0
   -8.8337   -0.1206   -0.0221 H   0  0  0  0  0  0  0  0  0  0  0  0
   -6.9235   -1.1206   -0.0729 C   0  0  0  0  0  0  0  0  0  0  0  0
   -7.3622   -2.1241   -0.1878 H   0  0  0  0  0  0  0  0  0  0  0  0
    1.7984   -2.1186    0.0692 C   0  0  0  0  0  0  0  0  0  0  0  0
    1.4438   -3.1640    0.1077 H   0  0  0  0  0  0  0  0  0  0  0  0
    3.2010   -1.8583    0.0046 C   0  0  0  0  0  0  0  0  0  0  0  0
    3.7202   -0.5118   -0.0718 C   0  0  2  0  0  3  0  0  0  0  0  0
    5.1370   -0.3505   -0.1426 C   0  0  0  0  0  0  0  0  0  0  0  0
    5.5196    0.6788   -0.2029 H   0  0  0  0  0  0  0  0  0  0  0  0
    5.9934   -1.4465   -0.1351 C   0  0  0  0  0  0  0  0  0  0  0  0
    7.0809   -1.2823   -0.1902 H   0  0  0  0  0  0  0  0  0  0  0  0
    5.4838   -2.7663   -0.0582 C   0  0  0  0  0  0  0  0  0  0  0  0
    6.1670   -3.6277   -0.0532 H   0  0  0  0  0  0  0  0  0  0  0  0
    4.1093   -2.9560    0.0086 C   0  0  0  0  0  0  0  0  0  0  0  0
    3.6925   -3.9744    0.0669 H   0  0  0  0  0  0  0  0  0  0  0  0
  1  7  1  0  0  0  0
  2 11  1  0  0  0  0
  2  3  1  0  0  0  0
  6  5  1  0  0  0  0
  7  5  2  0  0  0  0
  8  9  1  0  0  0  0
 10  7  1  0  0  0  0
 10  8  2  0  0  0  0
 11 10  1  0  0  0  0
 12 11  2  0  0  0  0
 12 14  1  0  0  0  0
 13 12  1  0  0  0  0
 14 15  1  0  0  0  0
 15  8  1  0  0  0  0
 15 16  2  0  0  0  0
 16 17  1  0  0  0  0
 18 16  1  0  0  0  0
 18 19  1  0  0  0  0
 20 18  2  0  0  0  0
 21 20  1  0  0  0  0
 22 14  2  0  0  0  0
 22 20  1  0  0  0  0
 23 22  1  0  0  0  0
 24  6  1  0  0  0  0
 24 25  1  0  0  0  0
 26 34  1  0  0  0  0
 26 24  2  0  0  0  0
 27  4  1  1  0  0  0
 27 26  1  0  0  0  0
 28 30  2  0  0  0  0
 28 27  1  0  0  0  0
 29 28  1  0  0  0  0
 30 32  1  0  0  0  0
 31 30  1  0  0  0  0
 32 33  1  0  0  0  0
 32 34  2  0  0  0  0
 34 35  1  0  0  0  0
M  CHG  1   1  -1
M  END
