1,5,13
q = -2.0, confidence = 0.95

 22 22  0  0  0  0  0  0  0  0999 V2000
   -0.2152   -1.5791    1.0629 O   0  5  0  0  0  0  0  0  0  0  0  0
    0.3272   -2.6675    0.5905 C   0  0  0  0  0  0  0  0  0  0  0  0
    0.2100   -3.7944    1.0658 O   0  0  0  0  0  0  0  0  0  0  0  0
    1.2436   -2.4222   -0.6276 C   0  0  0  0  0  0  0  0  0  0  0  0
    0.9718   -1.1159   -1.2607 N   0  0  0  0  0  0  0  0  0  0  0  0
    2.1529   -0.4127   -1.8031 C   0  0  0  0  0  0  0  0  0  0  0  0
    3.1807   -0.1024   -0.7415 C   0  0  0  0  0  0  0  0  0  0  0  0
    4.5466   -0.2210   -1.0560 C   0  0  0  0  0  0  0  0  0  0  0  0
    5.5627    0.1347   -0.1573 C   0  0  0  0  0  0  0  0  0  0  0  0
    5.1903    0.6191    1.1108 C   0  0  0  0  0  0  0  0  0  0  0  0
    3.8443    0.7309    1.4605 C   0  0  0  0  0  0  0  0  0  0  0  0
    2.7911    0.3725    0.5617 C   0  0  0  0  0  0  0  0  0  0  0  0
    1.5557    0.4751    0.9903 O   0  5  0  0  0  0  0  0  0  0  0  0
    1.1611   -3.2624   -1.3477 H   0  0  0  0  0  0  0  0  0  0  0  0
    2.2862   -2.4059   -0.2468 H   0  0  0  0  0  0  0  0  0  0  0  0
    0.2317   -1.2078   -1.9738 H   0  0  0  0  0  0  0  0  0  0  0  0
    1.7633    0.5264   -2.2477 H   0  0  0  0  0  0  0  0  0  0  0  0
    2.6259   -1.0229   -2.6068 H   0  0  0  0  0  0  0  0  0  0  0  0
    4.8151   -0.6026   -2.0565 H   0  0  0  0  0  0  0  0  0  0  0  0
    6.6216    0.0318   -0.4382 H   0  0  0  0  0  0  0  0  0  0  0  0
    5.9639    0.9072    1.8418 H   0  0  0  0  0  0  0  0  0  0  0  0
    3.5414    1.0985    2.4529 H   0  0  0  0  0  0  0  0  0  0  0  0
  2  1  1  0  0  0  0
  2  3  2  0  0  0  0
  4 15  1  0  0  0  0
  4  2  1  0  0  0  0
  5  4  1  0  0  0  0
  6  5  1  0  0  0  0
  6  7  1  0  0  0  0
  7 12  1  0  0  0  0
  8  7  2  0  0  0  0
  8  9  1  0  0  0  0
  9 10  2  0  0  0  0
 10 11  1  0  0  0  0
 10 21  1  0  0  0  0
 11 22  1  0  0  0  0
 12 13  1  0  0  0  0
 12 11  2  0  0  0  0
 14  4  1  0  0  0  0
 16  5  1  0  0  0  0
 17  6  1  0  0  0  0
 18  6  1  0  0  0  0
 19  8  1  0  0  0  0
 20  9  1  0  0  0  0
M  CHG  2   1  -1  13  -1
M  END
