2,3,5
q = -2.0, confidence = 0.962

 32 33  0  0  1  0  0  0  0  0999 V2000
   -3.5905    2.7190    0.1616 S   0  0  0  0  0  0  0  0  0  0  0  0
    1.2923   -1.4728   -0.0340 O   0  5  0  0  0  0  0  0  0  0  0  0
   -1.1178    1.2951    0.0354 O   0  5  0  0  0  0  0  0  0  0  0  0
    3.7051    2.6993   -1.1095 F   0  0  0  0  0  0  0  0  0  0  0  0
    1.6050    0.9658   -0.0005 N   0  0  0  0  0  2  0  0  0  0  0  0
    2.7798    0.2781   -0.0102 N   0  0  0  0  0  0  0  0  0  0  0  0
    1.6289    2.3048    0.0045 C   0  0  1  0  0  3  0  0  0  0  0  0
    2.5288   -1.0169   -0.0284 C   0  0  0  0  0  0  0  0  0  0  0  0
   -0.8365    2.5720    0.0327 C   0  0  0  0  0  0  0  0  0  0  0  0
    2.8349    4.3547    0.0005 F   0  0  0  0  0  0  0  0  0  0  0  0
    3.7305    2.6903    1.0761 F   0  0  0  0  0  0  0  0  0  0  0  0
    3.6432   -1.9836   -0.0450 C   0  0  0  0  0  0  0  0  0  0  0  0
   -2.1087    4.8408   -0.0183 C   0  0  0  0  0  0  0  0  0  0  0  0
   -1.2365    5.5029   -0.0981 H   0  0  0  0  0  0  0  0  0  0  0  0
    0.4631    3.0976    0.0217 C   0  0  0  0  0  0  0  0  0  0  0  0
    0.5929    4.1840    0.0310 H   0  0  0  0  0  0  0  0  0  0  0  0
   -2.0052    3.4528    0.0456 C   0  0  0  0  0  0  0  0  0  0  0  0
    2.9899    3.0033   -0.0072 C   0  0  0  0  0  0  0  0  0  0  0  0
    3.3805   -3.3664   -0.1481 C   0  0  0  0  0  0  0  0  0  0  0  0
    2.3356   -3.6996   -0.2242 H   0  0  0  0  0  0  0  0  0  0  0  0
    4.9812   -1.5358    0.0394 C   0  0  0  0  0  0  0  0  0  0  0  0
    5.1666   -0.4548    0.1164 H   0  0  0  0  0  0  0  0  0  0  0  0
    6.0321   -2.4595    0.0254 C   0  0  0  0  0  0  0  0  0  0  0  0
    7.0717   -2.1038    0.0930 H   0  0  0  0  0  0  0  0  0  0  0  0
    5.7655   -3.8368   -0.0745 C   0  0  0  0  0  0  0  0  0  0  0  0
    6.5951   -4.5603   -0.0854 H   0  0  0  0  0  0  0  0  0  0  0  0
   -3.4547    5.3001    0.0219 C   0  0  0  0  0  0  0  0  0  0  0  0
   -3.7438    6.3593   -0.0181 H   0  0  0  0  0  0  0  0  0  0  0  0
   -4.3686    4.2636    0.1164 C   0  0  0  0  0  0  0  0  0  0  0  0
   -5.4624    4.3278    0.1666 H   0  0  0  0  0  0  0  0  0  0  0  0
    4.4376   -4.2860   -0.1623 C   0  0  0  0  0  0  0  0  0  0  0  0
    4.2252   -5.3630   -0.2449 H   0  0  0  0  0  0  0  0  0  0  0  0
  2  8  1  0  0  0  0
  4 18  1  0  0  0  0
  6  5  1  0  0  0  0
  7  5  1  1  0  0  0
  7 15  1  0  0  0  0
  8  6  2  0  0  0  0
  9  3  1  0  0  0  0
  9 17  1  0  0  0  0
 12  8  1  0  0  0  0
 12 21  1  0  0  0  0
 13 27  1  0  0  0  0
 13 17  2  0  0  0  0
 14 13  1  0  0  0  0
 15 16  1  0  0  0  0
 15  9  2  0  0  0  0
 17  1  1  0  0  0  0
 18 10  1  0  0  0  0
 18  7  1  0  0  0  0
 18 11  1  0  0  0  0
 19 12  2  0  0  0  0
 20 19  1  0  0  0  0
 21 22  1  0  0  0  0
 23 21  2  0  0  0  0
 23 24  1  0  0  0  0
 25 23  1  0  0  0  0
 26 25  1  0  0  0  0
 27 29  2  0  0  0  0
 28 27  1  0  0  0  0
 29  1  1  0  0  0  0
 29 30  1  0  0  0  0
 31 19  1  0  0  0  0
 31 25  2  0  0  0  0
 32 31  1  0  0  0  0
M  CHG  2   2  -1   3  -1
M  END
