3,4,5
q = -2.0, confidence = 0.962

 29 30  0  0  1  0  0  0  0  0999 V2000
   -5.0941   -1.9232    0.0114 S   0  0  0  0  0  0  0  0  0  0  0  0
    3.3865    2.9752    0.1755 S   0  0  0  0  0  0  0  0  0  0  0  0
   -1.1145   -1.6260   -0.0337 O   0  5  0  0  0  0  0  0  0  0  0  0
    1.0455    1.3443    0.0380 O   0  0  0  0  0  1  0  0  0  0  0  0
   -1.6404    0.7839   -0.0029 N   0  0  0  0  0  2  0  0  0  0  0  0
   -0.6836    3.0050    0.0199 C   0  0  0  0  0  0  0  0  0  0  0  0
   -0.9059    4.0762    0.0283 H   0  0  0  0  0  0  0  0  0  0  0  0
   -2.7513   -0.0035   -0.0132 N   0  0  0  0  0  0  0  0  0  0  0  0
   -3.1509    4.0580   -0.0109 F   0  0  0  0  0  0  0  0  0  0  0  0
   -3.8796    2.3310   -1.1135 F   0  0  0  0  0  0  0  0  0  0  0  0
   -3.9021    2.3286    1.0725 F   0  0  0  0  0  0  0  0  0  0  0  0
   -3.3958   -2.3186   -0.0468 C   0  0  0  0  0  0  0  0  0  0  0  0
    1.7293    4.9619   -0.0145 C   0  0  0  0  0  0  0  0  0  0  0  0
    0.8040    5.5468   -0.0994 H   0  0  0  0  0  0  0  0  0  0  0  0
    1.7447    3.5702    0.0512 C   0  0  0  0  0  0  0  0  0  0  0  0
   -2.3829   -1.2715   -0.0300 C   0  0  0  0  0  0  0  0  0  0  0  0
    0.6556    2.5928    0.0347 C   0  0  1  0  0  3  0  0  0  0  0  0
   -1.7782    2.1160    0.0006 C   0  0  0  0  0  0  0  0  0  0  0  0
   -3.1985   -3.6940   -0.1119 C   0  0  0  0  0  0  0  0  0  0  0  0
   -2.1942   -4.1337   -0.1639 H   0  0  0  0  0  0  0  0  0  0  0  0
   -3.1929    2.6978   -0.0129 C   0  0  0  0  0  0  0  0  0  0  0  0
   -5.5302   -3.5964   -0.0490 C   0  0  0  0  0  0  0  0  0  0  0  0
   -6.5888   -3.8843   -0.0351 H   0  0  0  0  0  0  0  0  0  0  0  0
   -4.4207   -4.4238   -0.1128 C   0  0  0  0  0  0  0  0  0  0  0  0
   -4.4872   -5.5195   -0.1603 H   0  0  0  0  0  0  0  0  0  0  0  0
    3.0309    5.5348    0.0308 C   0  0  0  0  0  0  0  0  0  0  0  0
    3.2284    6.6149   -0.0097 H   0  0  0  0  0  0  0  0  0  0  0  0
    4.0298    4.5806    0.1310 C   0  0  0  0  0  0  0  0  0  0  0  0
    5.1139    4.7383    0.1860 H   0  0  0  0  0  0  0  0  0  0  0  0
  3 16  1  0  0  0  0
  5 18  1  0  0  0  0
  6  7  1  0  0  0  0
  6 17  1  0  0  0  0
  8  5  1  0  0  0  0
 10 21  1  0  0  0  0
 12 16  1  0  0  0  0
 12  1  1  0  0  0  0
 13 26  1  0  0  0  0
 13 15  2  0  0  0  0
 14 13  1  0  0  0  0
 15  2  1  0  0  0  0
 16  8  2  0  0  0  0
 17  4  1  1  0  0  0
 17 15  1  0  0  0  0
 18  6  2  0  0  0  0
 19 12  2  0  0  0  0
 20 19  1  0  0  0  0
 21  9  1  0  0  0  0
 21 18  1  0  0  0  0
 21 11  1  0  0  0  0
 22 23  1  0  0  0  0
 22  1  1  0  0  0  0
 24 19  1  0  0  0  0
 24 22  2  0  0  0  0
 25 24  1  0  0  0  0
 26 28  2  0  0  0  0
 27 26  1  0  0  0  0
 28  2  1  0  0  0  0
 28 29  1  0  0  0  0
M  CHG  1   3  -1
M  END
