1,2,3
q = -2.0, confidence = 0.906

 24 24  0  0  1  0  0  0  0  0999 V2000
    0.3219    1.2896    0.2110 N   0  0  0  0  0  2  0  0  0  0  0  0
   -1.0375   -1.0655   -0.1171 O   0  5  0  0  0  0  0  0  0  0  0  0
    2.5617    0.0963   -0.1997 O   0  0  0  0  0  1  0  0  0  0  0  0
   -2.0984    1.1045    0.0158 C   0  0  0  0  0  0  0  0  0  0  0  0
   -2.1274   -0.3230   -0.1365 C   0  0  0  0  0  0  0  0  0  0  0  0
   -3.3862   -0.9627   -0.2767 C   0  0  0  0  0  0  0  0  0  0  0  0
   -3.3912   -2.0563   -0.3874 H   0  0  0  0  0  0  0  0  0  0  0  0
   -4.5660   -0.2191   -0.2892 C   0  0  0  0  0  0  0  0  0  0  0  0
   -5.5284   -0.7393   -0.4136 H   0  0  0  0  0  0  0  0  0  0  0  0
   -4.5433    1.1864   -0.1467 C   0  0  0  0  0  0  0  0  0  0  0  0
   -5.4795    1.7624   -0.1578 H   0  0  0  0  0  0  0  0  0  0  0  0
   -3.3193    1.8297    0.0112 C   0  0  0  0  0  0  0  0  0  0  0  0
   -3.2785    2.9240    0.1343 H   0  0  0  0  0  0  0  0  0  0  0  0
   -0.8646    1.8164    0.2424 C   0  0  0  0  0  3  0  0  0  0  0  0
   -0.9631    2.8980    0.4829 H   0  0  0  0  0  0  0  0  0  0  0  0
    1.5036    2.0728    0.5325 C   0  0  0  0  0  0  0  0  0  0  0  0
    1.7519    1.9070    1.6050 H   0  0  0  0  0  0  0  0  0  0  0  0
    1.3449    3.1616    0.3695 H   0  0  0  0  0  0  0  0  0  0  0  0
    2.6540    1.5028   -0.3125 C   0  0  1  0  0  0  0  0  0  0  0  0
    2.4810    1.7917   -1.3796 H   0  0  0  0  0  0  0  0  0  0  0  0
    4.0292    1.9765    0.1351 C   0  0  0  0  0  0  0  0  0  0  0  0
    4.8113    1.5022   -0.4878 H   0  0  0  0  0  0  0  0  0  0  0  0
    4.2096    1.6947    1.1920 H   0  0  0  0  0  0  0  0  0  0  0  0
    4.1222    3.0768    0.0356 H   0  0  0  0  0  0  0  0  0  0  0  0
  1 14  1  0  0  0  0
  1 16  1  0  0  0  0
  4 14  1  0  0  0  0
  5  2  1  0  0  0  0
  5  4  2  0  0  0  0
  6  5  1  0  0  0  0
  7  6  1  0  0  0  0
  8  6  2  0  0  0  0
  8 10  1  0  0  0  0
  9  8  1  0  0  0  0
 10 12  2  0  0  0  0
 11 10  1  0  0  0  0
 12  4  1  0  0  0  0
 12 13  1  0  0  0  0
 14 15  1  0  0  0  0
 16 17  1  0  0  0  0
 18 16  1  0  0  0  0
 19 20  1  6  0  0  0
 19  3  1  0  0  0  0
 19 21  1  0  0  0  0
 19 16  1  0  0  0  0
 21 23  1  0  0  0  0
 22 21  1  0  0  0  0
 24 21  1  0  0  0  0
M  CHG  1   2  -1
M  END
