32,33,34
q = -2.0, confidence = 0.802

 35 36  0  0  1  0  0  0  0  0999 V2000
   -1.0939   -1.3944    0.1865 C   0  0  0  0  0  0  0  0  0  0  0  0
   -1.8564   -2.5705    0.5045 C   0  0  0  0  0  0  0  0  0  0  0  0
   -1.2966   -3.4765    0.7805 H   0  0  0  0  0  0  0  0  0  0  0  0
   -3.2304   -2.5679    0.4600 C   0  0  0  0  0  0  0  0  0  0  0  0
   -3.7906   -3.4845    0.7040 H   0  0  0  0  0  0  0  0  0  0  0  0
   -3.9668   -1.3958    0.0956 C   0  0  0  0  0  0  0  0  0  0  0  0
   -5.3871   -1.4129    0.0436 C   0  0  0  0  0  0  0  0  0  0  0  0
   -5.9082   -2.3507    0.2927 H   0  0  0  0  0  0  0  0  0  0  0  0
   -6.1064   -0.2798   -0.3130 C   0  0  0  0  0  0  0  0  0  0  0  0
   -7.2055   -0.3035   -0.3509 H   0  0  0  0  0  0  0  0  0  0  0  0
   -5.4068    0.9075   -0.6324 C   0  0  0  0  0  0  0  0  0  0  0  0
   -5.9648    1.8105   -0.9233 H   0  0  0  0  0  0  0  0  0  0  0  0
   -4.0165    0.9493   -0.5888 C   0  0  0  0  0  0  0  0  0  0  0  0
   -3.5186    1.8914   -0.8574 H   0  0  0  0  0  0  0  0  0  0  0  0
   -3.2458   -0.1905   -0.2214 C   0  0  1  0  0  3  0  0  0  0  0  0
   -1.7912   -0.1895   -0.1537 C   0  0  0  0  0  0  0  0  0  0  0  0
   -1.0608    1.0215   -0.3739 C   0  0  0  0  0  0  0  0  0  0  0  0
   -1.6375    1.9436   -0.5609 H   0  0  0  0  0  0  0  0  0  0  0  0
    0.8736    2.4718   -0.4537 C   0  0  2  0  0  0  0  0  0  0  0  0
    0.3498    3.0887   -1.2164 H   0  0  0  0  0  0  0  0  0  0  0  0
    2.3359    2.2590   -0.8929 C   0  0  0  0  0  0  0  0  0  0  0  0
    0.8792    3.2590    0.8901 C   0  0  0  0  0  0  0  0  0  0  0  0
    1.5137    4.1424    0.6570 H   0  0  0  0  0  0  0  0  0  0  0  0
   -0.5115    3.7536    1.2971 C   0  0  0  0  0  0  0  0  0  0  0  0
   -1.1815    2.9154    1.5822 H   0  0  0  0  0  0  0  0  0  0  0  0
   -1.0018    4.3267    0.4832 H   0  0  0  0  0  0  0  0  0  0  0  0
   -0.4388    4.4202    2.1803 H   0  0  0  0  0  0  0  0  0  0  0  0
    1.5419    2.4649    2.0216 C   0  0  0  0  0  0  0  0  0  0  0  0
    1.6244    3.0876    2.9350 H   0  0  0  0  0  0  0  0  0  0  0  0
    2.5590    2.1226    1.7475 H   0  0  0  0  0  0  0  0  0  0  0  0
    0.9421    1.5674    2.2804 H   0  0  0  0  0  0  0  0  0  0  0  0
    0.2454    1.1550   -0.3462 N   0  0  0  0  0  2  0  0  0  0  0  0
    0.2110   -1.5036    0.2331 O   0  5  0  0  0  0  0  0  0  0  0  0
    2.7452    1.0128   -0.7414 O   0  5  0  0  0  0  0  0  0  0  0  0
    3.0480    3.1797   -1.2635 O   0  0  0  0  0  0  0  0  0  0  0  0
  1 33  1  0  0  0  0
  1  2  2  0  0  0  0
  2  3  1  0  0  0  0
  4  2  1  0  0  0  0
  4  5  1  0  0  0  0
  6  4  2  0  0  0  0
  7  6  1  0  0  0  0
  7  8  1  0  0  0  0
  9  7  2  0  0  0  0
 10  9  1  0  0  0  0
 11 13  2  0  0  0  0
 11  9  1  0  0  0  0
 12 11  1  0  0  0  0
 14 13  1  0  0  0  0
 15 13  1  1  0  0  0
 15 16  1  0  0  0  0
 15  6  1  0  0  0  0
 16  1  1  0  0  0  0
 17 32  1  0  0  0  0
 17 16  2  0  0  0  0
 18 17  1  0  0  0  0
 19 20  1  6  0  0  0
 19 32  1  0  0  0  0
 19 22  1  0  0  0  0
 21 34  1  0  0  0  0
 21 19  1  0  0  0  0
 22 24  1  0  0  0  0
 22 28  1  0  0  0  0
 23 22  1  0  0  0  0
 24 25  1  0  0  0  0
 24 27  1  0  0  0  0
 26 24  1  0  0  0  0
 28 31  1  0  0  0  0
 28 29  1  0  0  0  0
 30 28  1  0  0  0  0
 35 21  2  0  0  0  0
M  CHG  2  33  -1  34  -1
M  END
