1,4,28
q = -2.0, confidence = 0.914

 32 33  0  0  1  0  0  0  0  0999 V2000
    0.6083    0.0758   -0.0628 N   0  0  0  0  0  2  0  0  0  0  0  0
   -0.1261    1.2179   -0.1865 C   0  0  1  0  0  3  0  0  0  0  0  0
    0.6898    2.2813   -0.2048 N   0  0  0  0  0  0  0  0  0  0  0  0
    2.0264    2.0004   -0.2284 O   0  0  0  0  0  1  0  0  0  0  0  0
    0.3136    3.6573   -0.3825 C   0  0  0  0  0  0  0  0  0  0  0  0
    0.7157    4.0423   -1.3433 H   0  0  0  0  0  0  0  0  0  0  0  0
    0.7183    4.2740    0.4460 H   0  0  0  0  0  0  0  0  0  0  0  0
   -0.7911    3.7073   -0.3899 H   0  0  0  0  0  0  0  0  0  0  0  0
   -1.4620    1.2247   -0.3025 N   0  0  0  0  0  0  0  0  0  0  0  0
   -2.0288   -0.0089   -0.3381 C   0  0  0  0  0  0  0  0  0  0  0  0
   -3.3965   -0.0598   -0.3925 N   0  0  0  0  0  0  0  0  0  0  0  0
   -4.1401   -1.3101   -0.4407 C   0  0  0  0  0  0  0  0  0  0  0  0
   -3.4248   -2.1457   -0.3357 H   0  0  0  0  0  0  0  0  0  0  0  0
   -4.6513   -1.3984   -1.4277 H   0  0  0  0  0  0  0  0  0  0  0  0
   -5.1907   -1.3204    0.6728 C   0  0  0  0  0  0  0  0  0  0  0  0
   -5.8465   -2.2093    0.5788 H   0  0  0  0  0  0  0  0  0  0  0  0
   -4.6713   -1.3674    1.6629 H   0  0  0  0  0  0  0  0  0  0  0  0
   -6.0320   -0.1794    0.6097 O   0  0  0  0  0  0  0  0  0  0  0  0
   -5.2762    1.0164    0.7263 C   0  0  0  0  0  0  0  0  0  0  0  0
   -4.7604    1.0558    1.7185 H   0  0  0  0  0  0  0  0  0  0  0  0
   -5.9955    1.8581    0.6720 H   0  0  0  0  0  0  0  0  0  0  0  0
   -4.2294    1.1339   -0.3844 C   0  0  0  0  0  0  0  0  0  0  0  0
   -4.7465    1.2304   -1.3675 H   0  0  0  0  0  0  0  0  0  0  0  0
   -3.5763    2.0135   -0.2396 H   0  0  0  0  0  0  0  0  0  0  0  0
   -1.3733   -1.2049   -0.3570 N   0  0  0  0  0  0  0  0  0  0  0  0
   -0.0454   -1.1050   -0.2343 C   0  0  0  0  0  0  0  0  0  0  0  0
    0.8395   -2.1150   -0.2807 N   0  0  0  0  0  0  0  0  0  0  0  0
    2.1602   -1.7356   -0.2354 O   0  0  0  0  0  1  0  0  0  0  0  0
    0.5652   -3.5122   -0.4549 C   0  0  0  0  0  0  0  0  0  0  0  0
   -0.5334   -3.6328   -0.5008 H   0  0  0  0  0  0  0  0  0  0  0  0
    0.9741   -4.0982    0.3950 H   0  0  0  0  0  0  0  0  0  0  0  0
    1.0207   -3.8838   -1.3977 H   0  0  0  0  0  0  0  0  0  0  0  0
  2  3  1  6  0  0  0
  2  1  1  0  0  0  0
  4  3  1  0  0  0  0
  5  3  1  0  0  0  0
  5  7  1  0  0  0  0
  6  5  1  0  0  0  0
  8  5  1  0  0  0  0
  9  2  1  0  0  0  0
 10  9  2  0  0  0  0
 11 22  1  0  0  0  0
 11 10  1  0  0  0  0
 12 11  1  0  0  0  0
 12 13  1  0  0  0  0
 12 15  1  0  0  0  0
 14 12  1  0  0  0  0
 15 17  1  0  0  0  0
 16 15  1  0  0  0  0
 18 15  1  0  0  0  0
 18 19  1  0  0  0  0
 19 20  1  0  0  0  0
 21 19  1  0  0  0  0
 22 24  1  0  0  0  0
 22 19  1  0  0  0  0
 23 22  1  0  0  0  0
 25 10  1  0  0  0  0
 25 26  2  0  0  0  0
 26  1  1  0  0  0  0
 27 28  1  0  0  0  0
 27 26  1  0  0  0  0
 29 27  1  0  0  0  0
 29 31  1  0  0  0  0
 30 29  1  0  0  0  0
 32 29  1  0  0  0  0
M  END
