2,4,5
q = -2.0, confidence = 0.942

 20 21  0  0  0  0  0  0  0  0999 V2000
   -3.5103    2.2186   -0.0001 O   0  0  0  0  0  0  0  0  0  0  0  0
    0.5338   -2.2281    0.0005 O   0  5  0  0  0  0  0  0  0  0  0  0
    1.6846    3.4175    0.0001 O   0  5  0  0  0  0  0  0  0  0  0  0
    2.4115    1.2600   -0.0007 O   0  0  0  0  0  0  0  0  0  0  0  0
    0.1327    0.2816    0.0006 N   0  0  0  0  0  2  0  0  0  0  0  0
    0.0972    1.6092    0.0003 C   0  0  0  0  0  0  0  0  0  0  0  0
   -1.1338    2.2986    0.0001 C   0  0  0  0  0  0  0  0  0  0  0  0
   -2.3233    1.5579    0.0000 C   0  0  0  0  0  0  0  0  0  0  0  0
   -2.2898    0.1179    0.0001 C   0  0  0  0  0  0  0  0  0  0  0  0
   -3.4004   -0.7737   -0.0002 C   0  0  0  0  0  3  0  0  0  0  0  0
   -3.1514   -2.1542   -0.0003 C   0  0  0  0  0  0  0  0  0  0  0  0
   -1.8549   -2.7206    0.0000 C   0  0  0  0  0  0  0  0  0  0  0  0
   -0.7114   -1.8803    0.0003 C   0  0  0  0  0  0  0  0  0  0  0  0
   -0.9901   -0.4585    0.0004 C   0  0  0  0  0  0  0  0  0  0  0  0
    1.5049    2.1991   -0.0001 C   0  0  0  0  0  0  0  0  0  0  0  0
   -1.1426    3.3971   -0.0001 H   0  0  0  0  0  0  0  0  0  0  0  0
   -4.4418   -0.4090   -0.0006 H   0  0  0  0  0  0  0  0  0  0  0  0
   -4.0149   -2.8400   -0.0005 H   0  0  0  0  0  0  0  0  0  0  0  0
   -1.7196   -3.8122   -0.0001 H   0  0  0  0  0  0  0  0  0  0  0  0
   -4.2166    1.5441    0.0000 H   0  0  0  0  0  0  0  0  0  0  0  0
  1 20  1  0  0  0  0
  1  8  1  0  0  0  0
  4 15  2  0  0  0  0
  6  5  1  0  0  0  0
  7  6  2  0  0  0  0
  8  9  2  0  0  0  0
  8  7  1  0  0  0  0
  9 14  1  0  0  0  0
 10  9  1  0  0  0  0
 11 10  1  0  0  0  0
 11 12  2  0  0  0  0
 12 13  1  0  0  0  0
 13 14  2  0  0  0  0
 13  2  1  0  0  0  0
 14  5  1  0  0  0  0
 15  3  1  0  0  0  0
 15  6  1  0  0  0  0
 16  7  1  0  0  0  0
 17 10  1  0  0  0  0
 18 11  1  0  0  0  0
 19 12  1  0  0  0  0
M  CHG  2   2  -1   3  -1
M  END
