36,40,41
q = -2.0, confidence = 0.792

 42 44  0  0  1  0  0  0  0  0999 V2000
    5.5663   -0.8978    0.0004 C   0  0  0  0  0  0  0  0  0  0  0  0
    6.9923   -0.8863    0.0002 C   0  0  0  0  0  0  0  0  0  0  0  0
    7.4910    0.0941    0.0008 H   0  0  0  0  0  0  0  0  0  0  0  0
    7.7260   -2.0686   -0.0007 C   0  0  0  0  0  0  0  0  0  0  0  0
    8.8262   -2.0209   -0.0009 H   0  0  0  0  0  0  0  0  0  0  0  0
    7.0760   -3.3265   -0.0016 C   0  0  0  0  0  0  0  0  0  0  0  0
    7.6627   -4.2564   -0.0023 H   0  0  0  0  0  0  0  0  0  0  0  0
    5.6875   -3.3695   -0.0014 C   0  0  0  0  0  3  0  0  0  0  0  0
    5.1619   -4.3376   -0.0020 H   0  0  0  0  0  0  0  0  0  0  0  0
    4.9031   -2.1801   -0.0005 C   0  0  0  0  0  0  0  0  0  0  0  0
    3.4794   -2.2836   -0.0004 C   0  0  0  0  0  0  0  0  0  0  0  0
    3.0033   -3.2799   -0.0009 H   0  0  0  0  0  0  0  0  0  0  0  0
    0.6561   -0.3516    0.0003 C   0  0  0  0  0  0  0  0  0  0  0  0
   -0.8179   -0.3546    0.0002 C   0  0  0  0  0  0  0  0  0  0  0  0
   -1.5411   -1.5700   -0.0007 C   0  0  0  0  0  0  0  0  0  0  0  0
   -0.9780   -2.5135   -0.0014 H   0  0  0  0  0  0  0  0  0  0  0  0
   -2.9343   -1.5672   -0.0007 C   0  0  0  0  0  0  0  0  0  0  0  0
   -3.4937   -2.5149   -0.0016 H   0  0  0  0  0  0  0  0  0  0  0  0
   -3.6525   -0.3466    0.0002 C   0  0  0  0  0  0  0  0  0  0  0  0
   -2.9341    0.8713    0.0013 C   0  0  0  0  0  0  0  0  0  0  0  0
   -3.4646    1.8342    0.0024 H   0  0  0  0  0  0  0  0  0  0  0  0
   -1.5385    0.8601    0.0013 C   0  0  0  0  0  0  0  0  0  0  0  0
   -0.9778    1.8050    0.0023 H   0  0  0  0  0  0  0  0  0  0  0  0
   -5.9298    0.5830   -0.0011 C   0  0  0  0  0  0  0  0  0  0  0  0
   -5.5715    1.6280   -0.0025 H   0  0  0  0  0  0  0  0  0  0  0  0
   -7.3146    0.3085   -0.0007 C   0  0  2  0  0  3  0  0  0  0  0  0
   -7.7572   -1.0986    0.0010 C   0  0  0  0  0  0  0  0  0  0  0  0
   -9.1833   -1.3174    0.0012 C   0  0  0  0  0  0  0  0  0  0  0  0
   -9.5257   -2.3626    0.0025 H   0  0  0  0  0  0  0  0  0  0  0  0
  -10.0729   -0.2580   -0.0001 C   0  0  0  0  0  0  0  0  0  0  0  0
  -11.1554   -0.4640    0.0001 H   0  0  0  0  0  0  0  0  0  0  0  0
   -9.6288    1.0998   -0.0017 C   0  0  0  0  0  0  0  0  0  0  0  0
  -10.3628    1.9183   -0.0028 H   0  0  0  0  0  0  0  0  0  0  0  0
   -8.2727    1.3684   -0.0021 C   0  0  0  0  0  0  0  0  0  0  0  0
   -7.9067    2.4087   -0.0033 H   0  0  0  0  0  0  0  0  0  0  0  0
    2.6533   -1.2532    0.0001 N   0  0  0  0  0  2  0  0  0  0  0  0
    1.3078   -1.5020    0.0001 N   0  0  0  0  0  0  0  0  0  0  0  0
   -5.0464   -0.4154    0.0001 N   0  0  0  0  0  4  0  0  0  0  0  0
   -5.6156   -1.3673    0.0011 H   0  0  0  0  0  0  0  0  0  0  0  0
    4.9351    0.2527    0.0014 O   0  5  0  0  0  0  0  0  0  0  0  0
    1.2888    0.8019    0.0004 O   0  5  0  0  0  0  0  0  0  0  0  0
   -6.9212   -2.0650    0.0021 O   0  0  0  0  0  0  0  0  0  0  0  0
  1 40  1  0  0  0  0
  2  1  2  0  0  0  0
  2  3  1  0  0  0  0
  4  2  1  0  0  0  0
  5  4  1  0  0  0  0
  6  8  1  0  0  0  0
  6  4  2  0  0  0  0
  7  6  1  0  0  0  0
  8 10  1  0  0  0  0
  9  8  1  0  0  0  0
 10 11  2  0  0  0  0
 10  1  1  0  0  0  0
 11 36  1  0  0  0  0
 12 11  1  0  0  0  0
 13 41  1  0  0  0  0
 14 13  1  0  0  0  0
 14 22  1  0  0  0  0
 15 14  2  0  0  0  0
 16 15  1  0  0  0  0
 17 15  1  0  0  0  0
 17 19  2  0  0  0  0
 18 17  1  0  0  0  0
 19 20  1  0  0  0  0
 20 21  1  0  0  0  0
 22 20  2  0  0  0  0
 22 23  1  0  0  0  0
 24 38  2  0  0  0  0
 25 24  1  0  0  0  0
 26 24  1  6  0  0  0
 26 27  1  0  0  0  0
 27 28  1  0  0  0  0
 27 42  2  0  0  0  0
 28 29  1  0  0  0  0
 30 31  1  0  0  0  0
 30 28  2  0  0  0  0
 32 30  1  0  0  0  0
 33 32  1  0  0  0  0
 34 32  2  0  0  0  0
 34 26  1  0  0  0  0
 35 34  1  0  0  0  0
 36 37  1  0  0  0  0
 37 13  2  0  0  0  0
 38 19  1  0  0  0  0
 38 39  1  0  0  0  0
M  CHG  2  40  -1  41  -1
M  END
