1,2,3
q = -2.0, confidence = 0.838

 16 15  0  0  0  0  0  0  0  0999 V2000
    0.7628   -0.2356    1.8266 O   0  0  0  0  0  1  0  0  0  0  0  0
    0.7610   -0.2362   -1.8264 O   0  0  0  0  0  1  0  0  0  0  0  0
    1.6707    1.4574   -0.0006 N   0  0  0  0  0  0  0  0  0  0  0  0
    1.2347    2.0373    1.2714 C   0  0  0  0  0  0  0  0  0  0  0  0
    0.1612    2.2938    1.1683 H   0  0  0  0  0  0  0  0  0  0  0  0
    1.7961    2.9568    1.5573 H   0  0  0  0  0  0  0  0  0  0  0  0
    1.3883    0.9178    2.3096 C   0  0  0  0  0  0  0  0  0  0  0  0
    2.4771    0.7289    2.4959 H   0  0  0  0  0  0  0  0  0  0  0  0
    0.9360    1.2222    3.2810 H   0  0  0  0  0  0  0  0  0  0  0  0
    1.3864    0.9168   -2.3104 C   0  0  0  0  0  0  0  0  0  0  0  0
    0.9334    1.2209   -3.2816 H   0  0  0  0  0  0  0  0  0  0  0  0
    2.4750    0.7277   -2.4974 H   0  0  0  0  0  0  0  0  0  0  0  0
    1.2337    2.0368   -1.2726 C   0  0  0  0  0  0  0  0  0  0  0  0
    1.7951    2.9562   -1.5593 H   0  0  0  0  0  0  0  0  0  0  0  0
    0.1604    2.2936   -1.1686 H   0  0  0  0  0  0  0  0  0  0  0  0
    2.6911    1.3119   -0.0010 H   0  0  0  0  0  0  0  0  0  0  0  0
  1  7  1  0  0  0  0
  3  4  1  0  0  0  0
  4  6  1  0  0  0  0
  4  7  1  0  0  0  0
  5  4  1  0  0  0  0
  7  8  1  0  0  0  0
  7  9  1  0  0  0  0
 10  2  1  0  0  0  0
 10 13  1  0  0  0  0
 11 10  1  0  0  0  0
 12 10  1  0  0  0  0
 13 15  1  0  0  0  0
 13  3  1  0  0  0  0
 14 13  1  0  0  0  0
 16  3  1  0  0  0  0
M  END
