2,4,6
q = -2.0, confidence = 0.856

 35 36  0  0  0  0  0  0  0  0999 V2000
   -7.7132   -1.2306   -0.1475 F   0  0  0  0  0  0  0  0  0  0  0  0
   -0.0695   -1.8044    0.0909 N   0  0  0  0  0  2  0  0  0  0  0  0
   -1.3965   -2.0337    0.2992 N   0  0  0  0  0  0  0  0  0  0  0  0
    2.0844   -0.3305   -0.3655 O   0  5  0  0  0  0  0  0  0  0  0  0
    4.7109   -0.0268   -0.3799 O   0  0  0  0  0  0  0  0  0  0  0  0
   -1.5348   -0.1810   -1.0490 O   0  5  0  0  0  0  0  0  0  0  0  0
    2.2135   -2.5216    0.5922 C   0  0  0  0  0  0  0  0  0  0  0  0
    2.8130   -1.3308    0.0867 C   0  0  0  0  0  0  0  0  0  0  0  0
    4.2390   -1.1981    0.1111 C   0  0  0  0  0  0  0  0  0  0  0  0
    5.0208   -2.2455    0.6212 C   0  0  0  0  0  0  0  0  0  0  0  0
    6.1152   -2.1558    0.6357 H   0  0  0  0  0  0  0  0  0  0  0  0
    4.4168   -3.4228    1.1198 C   0  0  0  0  0  0  0  0  0  0  0  0
    5.0535   -4.2285    1.5131 H   0  0  0  0  0  0  0  0  0  0  0  0
    3.0342   -3.5605    1.1142 C   0  0  0  0  0  0  0  0  0  0  0  0
    2.5560   -4.4723    1.5024 H   0  0  0  0  0  0  0  0  0  0  0  0
    6.1190    0.1830   -0.4098 C   0  0  0  0  0  0  0  0  0  0  0  0
    6.6084   -0.6167   -1.0143 H   0  0  0  0  0  0  0  0  0  0  0  0
    6.5349    0.1157    0.6234 H   0  0  0  0  0  0  0  0  0  0  0  0
    6.3726    1.5520   -1.0113 C   0  0  0  0  0  0  0  0  0  0  0  0
    5.9622    1.6087   -2.0385 H   0  0  0  0  0  0  0  0  0  0  0  0
    7.4605    1.7567   -1.0544 H   0  0  0  0  0  0  0  0  0  0  0  0
    5.8893    2.3416   -0.4031 H   0  0  0  0  0  0  0  0  0  0  0  0
    0.7824   -2.6461    0.6347 C   0  0  0  0  0  3  0  0  0  0  0  0
    0.3396   -3.5038    1.1739 H   0  0  0  0  0  0  0  0  0  0  0  0
   -2.1072   -1.1277   -0.3545 C   0  0  0  0  0  0  0  0  0  0  0  0
   -3.5807   -1.1676   -0.2978 C   0  0  0  0  0  0  0  0  0  0  0  0
   -4.3314   -0.1800   -0.9710 C   0  0  0  0  0  0  0  0  0  0  0  0
   -3.7949    0.5987   -1.5314 H   0  0  0  0  0  0  0  0  0  0  0  0
   -5.7296   -0.1965   -0.9242 C   0  0  0  0  0  0  0  0  0  0  0  0
   -6.3358    0.5609   -1.4410 H   0  0  0  0  0  0  0  0  0  0  0  0
   -6.3696   -1.2093   -0.1976 C   0  0  0  0  0  0  0  0  0  0  0  0
   -5.6473   -2.2029    0.4803 C   0  0  0  0  0  0  0  0  0  0  0  0
   -6.1924   -2.9790    1.0363 H   0  0  0  0  0  0  0  0  0  0  0  0
   -4.2512   -2.1783    0.4270 C   0  0  0  0  0  0  0  0  0  0  0  0
   -3.6517   -2.9403    0.9445 H   0  0  0  0  0  0  0  0  0  0  0  0
  2  3  1  0  0  0  0
  2 23  1  0  0  0  0
  4  8  1  0  0  0  0
  5  9  1  0  0  0  0
  6 25  1  0  0  0  0
  7 23  1  0  0  0  0
  7 14  1  0  0  0  0
  8  9  1  0  0  0  0
  8  7  2  0  0  0  0
  9 10  2  0  0  0  0
 10 11  1  0  0  0  0
 10 12  1  0  0  0  0
 12 13  1  0  0  0  0
 14 12  2  0  0  0  0
 14 15  1  0  0  0  0
 16  5  1  0  0  0  0
 16 18  1  0  0  0  0
 17 16  1  0  0  0  0
 19 16  1  0  0  0  0
 19 22  1  0  0  0  0
 20 19  1  0  0  0  0
 21 19  1  0  0  0  0
 23 24  1  0  0  0  0
 25 26  1  0  0  0  0
 25  3  2  0  0  0  0
 26 34  1  0  0  0  0
 27 29  1  0  0  0  0
 27 26  2  0  0  0  0
 28 27  1  0  0  0  0
 29 31  2  0  0  0  0
 30 29  1  0  0  0  0
 31  1  1  0  0  0  0
 31 32  1  0  0  0  0
 32 33  1  0  0  0  0
 34 32  2  0  0  0  0
 34 35  1  0  0  0  0
M  CHG  2   4  -1   6  -1
M  END
