1,14,31
 OpenBabel05122313063D

 37 38  0  0  1  0  0  0  0  0999 V2000
    2.0732   -0.1349   -0.3502 O   0  5  0  0  0  0  0  0  0  0  0  0
    4.2786   -0.8808    0.0471 C   0  0  0  0  0  0  0  0  0  0  0  0
    2.8235   -1.1569   -0.0204 C   0  0  0  0  0  0  0  0  0  0  0  0
    4.7564    0.3514   -0.4567 C   0  0  0  0  0  0  0  0  0  0  0  0
    4.0303    1.0576   -0.8831 H   0  0  0  0  0  0  0  0  0  0  0  0
    6.1223    0.6559   -0.4198 C   0  0  0  0  0  0  0  0  0  0  0  0
    6.4778    1.6174   -0.8203 H   0  0  0  0  0  0  0  0  0  0  0  0
    6.5730   -1.4888    0.6276 C   0  0  0  0  0  0  0  0  0  0  0  0
    7.2829   -2.2111    1.0583 H   0  0  0  0  0  0  0  0  0  0  0  0
    7.0367   -0.2625    0.1206 C   0  0  0  0  0  0  0  0  0  0  0  0
    8.1108   -0.0243    0.1486 H   0  0  0  0  0  0  0  0  0  0  0  0
    2.2576   -2.3928    0.2912 C   0  0  0  0  0  0  0  0  0  0  0  0
    2.9144   -3.2171    0.5915 H   0  0  0  0  0  0  0  0  0  0  0  0
   -1.5286   -0.1368   -1.1706 O   0  5  0  0  0  0  0  0  0  0  0  0
   -3.5684   -1.1134   -0.3841 C   0  0  0  0  0  0  0  0  0  0  0  0
   -4.2994   -0.1045   -1.0576 C   0  0  0  0  0  0  0  0  0  0  0  0
   -3.7205    0.6587   -1.5969 H   0  0  0  0  0  0  0  0  0  0  0  0
   -2.1084   -1.0731   -0.4533 C   0  0  0  0  0  0  0  0  0  0  0  0
   -5.6923   -0.0744   -1.0441 C   0  0  0  0  0  0  0  0  0  0  0  0
   -6.2388    0.7181   -1.5749 H   0  0  0  0  0  0  0  0  0  0  0  0
   -6.3890   -1.0788   -0.3387 C   0  0  0  0  0  0  0  0  0  0  0  0
   -7.4900   -1.0738   -0.3167 H   0  0  0  0  0  0  0  0  0  0  0  0
   -1.3516   -1.9607    0.1902 N   0  0  0  0  0  0  0  0  0  0  0  0
    0.3458   -3.8900    1.0106 C   0  0  0  0  0  0  0  0  0  0  0  0
    1.1730   -4.5918    1.2200 H   0  0  0  0  0  0  0  0  0  0  0  0
   -0.4006   -4.3764    0.3504 H   0  0  0  0  0  0  0  0  0  0  0  0
   -0.1800   -3.6647    1.9622 H   0  0  0  0  0  0  0  0  0  0  0  0
   -4.2792   -2.1369    0.3387 C   0  0  0  0  0  0  0  0  0  0  0  0
   -5.7012   -2.0846    0.3363 C   0  0  0  0  0  0  0  0  0  0  0  0
   -6.2556   -2.8636    0.8835 H   0  0  0  0  0  0  0  0  0  0  0  0
   -0.0324   -1.7239   -0.0573 N   0  0  0  0  0  2  0  0  0  0  0  0
    0.8547   -2.6216    0.3806 C   0  0  1  0  0  3  0  0  0  0  0  0
   -3.6178   -3.1227    1.0028 N   0  0  0  0  0  0  0  0  0  0  0  0
   -2.5857   -3.0935    0.9774 H   0  0  0  0  0  0  0  0  0  0  0  0
   -4.1391   -3.8397    1.4998 H   0  0  0  0  0  0  0  0  0  0  0  0
    5.2082   -1.7955    0.5944 C   0  0  0  0  0  0  0  0  0  0  0  0
    4.8635   -2.7524    1.0116 H   0  0  0  0  0  0  0  0  0  0  0  0
  1  3  1  0  0  0  0
  2 36  1  0  0  0  0
  3  2  1  0  0  0  0
  3 12  2  0  0  0  0
  4  6  1  0  0  0  0
  4  2  2  0  0  0  0
  5  4  1  0  0  0  0
  6 10  2  0  0  0  0
  7  6  1  0  0  0  0
  8  9  1  0  0  0  0
 10 11  1  0  0  0  0
 10  8  1  0  0  0  0
 12 32  1  0  0  0  0
 12 13  1  0  0  0  0
 14 18  1  0  0  0  0
 15 28  1  0  0  0  0
 16 19  1  0  0  0  0
 16 15  2  0  0  0  0
 17 16  1  0  0  0  0
 18 15  1  0  0  0  0
 18 23  2  0  0  0  0
 19 21  2  0  0  0  0
 20 19  1  0  0  0  0
 21 22  1  0  0  0  0
 21 29  1  0  0  0  0
 24 25  1  0  0  0  0
 24 27  1  0  0  0  0
 26 24  1  0  0  0  0
 28 33  1  0  0  0  0
 29 28  2  0  0  0  0
 29 30  1  0  0  0  0
 31 23  1  0  0  0  0
 32 31  1  1  0  0  0
 32 24  1  0  0  0  0
 33 35  1  0  0  0  0
 34 33  1  0  0  0  0
 36  8  2  0  0  0  0
 36 37  1  0  0  0  0
M  CHG  2   1  -1  14  -1
M  END
