1,16,30
 OpenBabel05122313063D

 30 30  0  0  1  0  0  0  0  0999 V2000
   -0.6582   -0.0067   -1.1731 O   0  5  0  0  0  0  0  0  0  0  0  0
   -1.5401   -0.6596   -0.4484 C   0  0  0  0  0  0  0  0  0  0  0  0
   -2.9255   -0.1902   -0.4250 C   0  0  0  0  0  0  0  0  0  0  0  0
   -3.2491    0.9816   -1.1509 C   0  0  0  0  0  0  0  0  0  0  0  0
   -2.4316    1.4766   -1.6944 H   0  0  0  0  0  0  0  0  0  0  0  0
   -3.9601   -0.8766    0.3052 C   0  0  0  0  0  0  0  0  0  0  0  0
   -5.2758   -0.3373    0.2562 C   0  0  0  0  0  0  0  0  0  0  0  0
   -6.0759   -0.8552    0.8087 H   0  0  0  0  0  0  0  0  0  0  0  0
   -4.5459    1.4909   -1.1827 C   0  0  0  0  0  0  0  0  0  0  0  0
   -4.7740    2.4019   -1.7542 H   0  0  0  0  0  0  0  0  0  0  0  0
   -5.5603    0.8169   -0.4702 C   0  0  0  0  0  0  0  0  0  0  0  0
   -6.5919    1.2022   -0.4832 H   0  0  0  0  0  0  0  0  0  0  0  0
   -3.6925   -2.0030    1.0196 N   0  0  0  0  0  0  0  0  0  0  0  0
   -4.4399   -2.4797    1.5167 H   0  0  0  0  0  0  0  0  0  0  0  0
   -2.7141   -2.3341    1.0223 H   0  0  0  0  0  0  0  0  0  0  0  0
    0.1760   -1.9708    0.0281 N   0  0  0  0  0  2  0  0  0  0  0  0
   -1.1506   -1.7282    0.2423 N   0  0  0  0  0  0  0  0  0  0  0  0
    0.6891   -3.1000    0.5179 C   0  0  1  0  0  3  0  0  0  0  0  0
    3.0439   -2.4106    0.1364 C   0  0  0  0  0  0  0  0  0  0  0  0
    2.0902   -3.3687    0.4614 C   0  0  0  0  0  0  0  0  0  0  0  0
    2.4347   -4.3481    0.8168 H   0  0  0  0  0  0  0  0  0  0  0  0
   -0.2337   -4.0887    1.1771 C   0  0  0  0  0  0  0  0  0  0  0  0
   -0.6650   -3.6562    2.1043 H   0  0  0  0  0  0  0  0  0  0  0  0
    0.2987   -5.0220    1.4341 H   0  0  0  0  0  0  0  0  0  0  0  0
   -1.0918   -4.3167    0.5128 H   0  0  0  0  0  0  0  0  0  0  0  0
    4.5215   -2.6647    0.2405 C   0  0  0  0  0  0  0  0  0  0  0  0
    4.9881   -2.5490   -0.7600 H   0  0  0  0  0  0  0  0  0  0  0  0
    4.7442   -3.6743    0.6308 H   0  0  0  0  0  0  0  0  0  0  0  0
    4.9872   -1.9024    0.8985 H   0  0  0  0  0  0  0  0  0  0  0  0
    2.7166   -1.2012   -0.2319 O   0  5  0  0  0  0  0  0  0  0  0  0
  1  2  1  0  0  0  0
  2  3  1  0  0  0  0
  2 17  2  0  0  0  0
  3  6  1  0  0  0  0
  4  3  2  0  0  0  0
  5  4  1  0  0  0  0
  6 13  1  0  0  0  0
  7  6  2  0  0  0  0
  7  8  1  0  0  0  0
  9  4  1  0  0  0  0
  9 11  2  0  0  0  0
 10  9  1  0  0  0  0
 11  7  1  0  0  0  0
 12 11  1  0  0  0  0
 13 15  1  0  0  0  0
 13 14  1  0  0  0  0
 16 17  1  0  0  0  0
 18 16  1  1  0  0  0
 18 22  1  0  0  0  0
 19 26  1  0  0  0  0
 19 20  2  0  0  0  0
 20 18  1  0  0  0  0
 20 21  1  0  0  0  0
 22 24  1  0  0  0  0
 22 23  1  0  0  0  0
 25 22  1  0  0  0  0
 26 28  1  0  0  0  0
 26 29  1  0  0  0  0
 27 26  1  0  0  0  0
 30 19  1  0  0  0  0
M  CHG  2   1  -1  30  -1
M  END
