26,27,28
 OpenBabel05122313063D

 28 29  0  0  0  0  0  0  0  0999 V2000
    0.8360   -0.2348   -0.0582 C   0  0  0  0  0  0  0  0  0  0  0  0
    2.3112   -0.3960   -0.0037 C   0  0  0  0  0  0  0  0  0  0  0  0
    3.1492    0.6916    0.3322 C   0  0  0  0  0  0  0  0  0  0  0  0
    4.5464    0.5643    0.3713 C   0  0  0  0  0  0  0  0  0  0  0  0
    5.1410   -0.6690    0.0576 C   0  0  0  0  0  0  0  0  0  0  0  0
    4.3338   -1.7667   -0.2833 C   0  0  0  0  0  0  0  0  0  0  0  0
    2.9365   -1.6259   -0.3166 C   0  0  0  0  0  0  0  0  0  0  0  0
   -2.1415   -1.8329    0.3545 C   0  0  0  0  0  3  0  0  0  0  0  0
   -1.7636   -2.8374    0.6241 H   0  0  0  0  0  0  0  0  0  0  0  0
   -3.5614   -1.6215    0.2859 C   0  0  0  0  0  0  0  0  0  0  0  0
   -4.4432   -2.7193    0.4688 C   0  0  0  0  0  0  0  0  0  0  0  0
   -4.0089   -3.7194    0.6248 H   0  0  0  0  0  0  0  0  0  0  0  0
   -5.8256   -2.5475    0.4465 C   0  0  0  0  0  0  0  0  0  0  0  0
   -6.4947   -3.4093    0.5817 H   0  0  0  0  0  0  0  0  0  0  0  0
   -6.3581   -1.2548    0.2507 C   0  0  0  0  0  0  0  0  0  0  0  0
   -7.4492   -1.1094    0.2344 H   0  0  0  0  0  0  0  0  0  0  0  0
   -5.5197   -0.1514    0.0773 C   0  0  0  0  0  0  0  0  0  0  0  0
   -5.9207    0.8612   -0.0708 H   0  0  0  0  0  0  0  0  0  0  0  0
   -4.1133   -0.3112    0.0862 C   0  0  0  0  0  0  0  0  0  0  0  0
    2.6390    1.8828    0.6661 F   0  0  0  0  0  0  0  0  0  0  0  0
    5.3103    1.6052    0.7110 F   0  0  0  0  0  0  0  0  0  0  0  0
    6.4662   -0.7985    0.0897 F   0  0  0  0  0  0  0  0  0  0  0  0
    4.9000   -2.9352   -0.5928 F   0  0  0  0  0  0  0  0  0  0  0  0
    2.2274   -2.6914   -0.6824 F   0  0  0  0  0  0  0  0  0  0  0  0
    0.0725   -1.2599    0.2845 N   0  0  0  0  0  0  0  0  0  0  0  0
   -1.2386   -0.9077    0.1227 N   0  0  0  0  0  2  0  0  0  0  0  0
    0.3597    0.9169   -0.4284 O   0  5  0  0  0  0  0  0  0  0  0  0
   -3.3355    0.7477   -0.0520 O   0  5  0  0  0  0  0  0  0  0  0  0
  1  2  1  0  0  0  0
  1 25  2  0  0  0  0
  2  3  1  0  0  0  0
  3  4  2  0  0  0  0
  3 20  1  0  0  0  0
  4 21  1  0  0  0  0
  5 22  1  0  0  0  0
  5  4  1  0  0  0  0
  6  5  2  0  0  0  0
  7  6  1  0  0  0  0
  7  2  2  0  0  0  0
  8  9  1  0  0  0  0
 10  8  1  0  0  0  0
 10 11  1  0  0  0  0
 11 12  1  0  0  0  0
 13 11  2  0  0  0  0
 13 14  1  0  0  0  0
 15 13  1  0  0  0  0
 16 15  1  0  0  0  0
 17 19  1  0  0  0  0
 17 15  2  0  0  0  0
 18 17  1  0  0  0  0
 19 10  2  0  0  0  0
 23  6  1  0  0  0  0
 24  7  1  0  0  0  0
 26 25  1  0  0  0  0
 26  8  1  0  0  0  0
 27  1  1  0  0  0  0
 28 19  1  0  0  0  0
M  CHG  2  27  -1  28  -1
M  END
