25,27,28
 OpenBabel05122313063D

 30 31  0  0  0  0  0  0  0  0999 V2000
   -1.5059   -0.2133   -0.1738 C   0  0  0  0  0  0  0  0  0  0  0  0
   -2.9342   -0.5839   -0.0362 C   0  0  0  0  0  0  0  0  0  0  0  0
   -3.8387    0.3043    0.5838 C   0  0  0  0  0  0  0  0  0  0  0  0
   -5.1978   -0.0117    0.7254 C   0  0  0  0  0  0  0  0  0  0  0  0
   -5.6750   -1.2428    0.2424 C   0  0  0  0  0  0  0  0  0  0  0  0
   -4.7939   -2.1465   -0.3759 C   0  0  0  0  0  0  0  0  0  0  0  0
   -3.4351   -1.8155   -0.5092 C   0  0  0  0  0  0  0  0  0  0  0  0
    1.6979   -1.2803    0.1451 C   0  0  0  0  0  3  0  0  0  0  0  0
    1.5176   -2.3473    0.3735 H   0  0  0  0  0  0  0  0  0  0  0  0
    3.0550   -0.7956    0.1085 C   0  0  0  0  0  0  0  0  0  0  0  0
    3.3499    0.6103    0.0194 C   0  0  0  0  0  0  0  0  0  0  0  0
    4.7039    1.0371    0.0473 C   0  0  0  0  0  0  0  0  0  0  0  0
    4.9027    2.1159   -0.0191 H   0  0  0  0  0  0  0  0  0  0  0  0
    5.7408    0.1151    0.1518 C   0  0  0  0  0  0  0  0  0  0  0  0
    6.7948    0.4233    0.1687 H   0  0  0  0  0  0  0  0  0  0  0  0
    5.4367   -1.2576    0.2396 C   0  0  0  0  0  0  0  0  0  0  0  0
    4.1204   -1.7143    0.2267 C   0  0  0  0  0  0  0  0  0  0  0  0
    3.9331   -2.7943    0.3066 H   0  0  0  0  0  0  0  0  0  0  0  0
   -3.4144    1.4691    1.0936 F   0  0  0  0  0  0  0  0  0  0  0  0
   -6.0327    0.8364    1.3291 F   0  0  0  0  0  0  0  0  0  0  0  0
   -6.9630   -1.5531    0.3732 F   0  0  0  0  0  0  0  0  0  0  0  0
   -5.2549   -3.3079   -0.8424 F   0  0  0  0  0  0  0  0  0  0  0  0
   -2.6397   -2.6870   -1.1257 F   0  0  0  0  0  0  0  0  0  0  0  0
   -0.5769   -1.1116    0.0827 N   0  0  0  0  0  0  0  0  0  0  0  0
    0.6472   -0.5291   -0.0642 N   0  0  0  0  0  2  0  0  0  0  0  0
    6.5352   -2.2354    0.3555 N   0  0  0  0  0  0  0  0  0  0  0  0
   -1.2375    1.0227   -0.5071 O   0  5  0  0  0  0  0  0  0  0  0  0
    2.3937    1.5125   -0.0482 O   0  5  0  0  0  0  0  0  0  0  0  0
    7.6862   -1.7951    0.3683 O   0  0  0  0  0  0  0  0  0  0  0  0
    6.2307   -3.4271    0.4331 O   0  0  0  0  0  0  0  0  0  0  0  0
  1  2  1  0  0  0  0
  1 24  2  0  0  0  0
  2  3  1  0  0  0  0
  3  4  2  0  0  0  0
  3 19  1  0  0  0  0
  4 20  1  0  0  0  0
  5 21  1  0  0  0  0
  5  4  1  0  0  0  0
  6  5  2  0  0  0  0
  7  6  1  0  0  0  0
  7  2  2  0  0  0  0
  8  9  1  0  0  0  0
 10  8  1  0  0  0  0
 10 17  1  0  0  0  0
 11 12  1  0  0  0  0
 11 10  2  0  0  0  0
 12 14  2  0  0  0  0
 13 12  1  0  0  0  0
 14 15  1  0  0  0  0
 14 16  1  0  0  0  0
 16 26  1  0  0  0  0
 17 16  2  0  0  0  0
 17 18  1  0  0  0  0
 22  6  1  0  0  0  0
 23  7  1  0  0  0  0
 25 24  1  0  0  0  0
 25  8  1  0  0  0  0
 26 29  2  0  0  0  0
 26 30  2  0  0  0  0
 27  1  1  0  0  0  0
 28 11  1  0  0  0  0
M  CHG  2  27  -1  28  -1
M  END
