1,3,4
 OpenBabel05122313063D

 24 24  0  0  1  0  0  0  0  0999 V2000
    0.0583    1.8888    0.0964 N   0  0  0  0  0  2  0  0  0  0  0  0
    1.3724    1.6717   -0.1272 N   0  0  0  0  0  0  0  0  0  0  0  0
    0.5360   -0.3656   -0.8146 O   0  5  0  0  0  0  0  0  0  0  0  0
   -2.4262    1.7161    0.2461 O   0  5  0  0  0  0  0  0  0  0  0  0
   -2.6719    3.8370    0.9845 O   0  0  0  0  0  0  0  0  0  0  0  0
    3.8959    2.0894   -0.1850 O   0  0  0  0  0  0  0  0  0  0  0  0
    2.8960    2.2475   -0.0596 H   0  0  0  0  0  0  0  0  0  0  0  0
    3.1374   -1.3486   -1.3319 C   0  0  0  0  0  0  0  0  0  0  0  0
    2.2551   -1.9844   -1.4952 H   0  0  0  0  0  0  0  0  0  0  0  0
    4.4275   -1.8164   -1.5746 C   0  0  0  0  0  0  0  0  0  0  0  0
    4.5895   -2.8407   -1.9403 H   0  0  0  0  0  0  0  0  0  0  0  0
    5.5248   -0.9571   -1.3476 C   0  0  0  0  0  0  0  0  0  0  0  0
    6.5489   -1.3147   -1.5377 H   0  0  0  0  0  0  0  0  0  0  0  0
    5.3331    0.3447   -0.8843 C   0  0  0  0  0  0  0  0  0  0  0  0
    6.1795    1.0227   -0.7035 H   0  0  0  0  0  0  0  0  0  0  0  0
    4.0300    0.8381   -0.6316 C   0  0  0  0  0  0  0  0  0  0  0  0
    2.9130   -0.0321   -0.8642 C   0  0  0  0  0  0  0  0  0  0  0  0
    1.5440    0.4180   -0.6039 C   0  0  0  0  0  0  0  0  0  0  0  0
   -0.4585    2.9991    0.5666 C   0  0  2  0  0  3  0  0  0  0  0  0
   -1.9575    2.9054    0.6381 C   0  0  0  0  0  0  0  0  0  0  0  0
    0.3067    4.2201    0.9249 C   0  0  0  0  0  0  0  0  0  0  0  0
    1.0784    4.0046    1.6937 H   0  0  0  0  0  0  0  0  0  0  0  0
   -0.4029    4.9778    1.3068 H   0  0  0  0  0  0  0  0  0  0  0  0
    0.8410    4.6313    0.0419 H   0  0  0  0  0  0  0  0  0  0  0  0
  2  1  1  0  0  0  0
  3 18  1  0  0  0  0
  4 20  1  0  0  0  0
  6  7  1  0  0  0  0
  8 17  1  0  0  0  0
  9  8  1  0  0  0  0
 10 12  1  0  0  0  0
 10  8  2  0  0  0  0
 11 10  1  0  0  0  0
 12 14  2  0  0  0  0
 13 12  1  0  0  0  0
 14 15  1  0  0  0  0
 14 16  1  0  0  0  0
 16  6  1  0  0  0  0
 17 16  2  0  0  0  0
 17 18  1  0  0  0  0
 18  2  2  0  0  0  0
 19  1  1  6  0  0  0
 19 20  1  0  0  0  0
 19 21  1  0  0  0  0
 20  5  2  0  0  0  0
 21 23  1  0  0  0  0
 21 22  1  0  0  0  0
 24 21  1  0  0  0  0
M  CHG  2   3  -1   4  -1
M  END
