2,3,4
 OpenBabel05122313063D

 42 43  0  0  0  0  0  0  0  0999 V2000
    2.2278    1.3435    0.1416 N   0  0  0  0  0  0  0  0  0  0  0  0
   -0.9769   -1.0520    0.4982 O   0  5  0  0  0  0  0  0  0  0  0  0
    0.9846    0.8326    0.1603 N   0  0  0  0  0  2  0  0  0  0  0  0
    2.7761   -0.9016   -0.0972 O   0  5  0  0  0  0  0  0  0  0  0  0
    7.2174    1.3248   -0.3187 N   0  0  0  0  0  0  0  0  0  0  0  0
    8.2139    1.5512   -0.3950 H   0  0  0  0  0  0  0  0  0  0  0  0
    3.1148    0.3715   -0.0181 C   0  0  0  0  0  0  0  0  0  0  0  0
   -3.2036   -0.3344    0.3875 C   0  0  0  0  0  0  0  0  0  0  0  0
   -3.4711   -1.3952    0.4444 H   0  0  0  0  0  0  0  0  0  0  0  0
   -5.5251    0.3896    0.3398 N   0  0  0  0  0  0  0  0  0  0  0  0
   -2.3924    2.3475    0.2684 C   0  0  0  0  0  0  0  0  0  0  0  0
   -2.0685    3.3983    0.2181 H   0  0  0  0  0  0  0  0  0  0  0  0
    4.5239    0.7163   -0.1152 C   0  0  0  0  0  0  0  0  0  0  0  0
   -0.0244    1.6989    0.2521 C   0  0  0  0  0  3  0  0  0  0  0  0
    0.2437    2.7718    0.2714 H   0  0  0  0  0  0  0  0  0  0  0  0
   -3.7387    2.0580    0.2751 C   0  0  0  0  0  0  0  0  0  0  0  0
   -4.4574    2.8833    0.2261 H   0  0  0  0  0  0  0  0  0  0  0  0
   -1.3869    1.3306    0.2982 C   0  0  0  0  0  0  0  0  0  0  0  0
   -1.8411   -0.0402    0.3799 C   0  0  0  0  0  0  0  0  0  0  0  0
   -4.1949    0.6906    0.3288 C   0  0  0  0  0  0  0  0  0  0  0  0
    5.4887   -0.3071   -0.3323 C   0  0  0  0  0  0  0  0  0  0  0  0
    5.1605   -1.3512   -0.4232 H   0  0  0  0  0  0  0  0  0  0  0  0
   -6.5500    1.4388    0.2588 C   0  0  0  0  0  0  0  0  0  0  0  0
   -6.2472    2.2831    0.9100 H   0  0  0  0  0  0  0  0  0  0  0  0
   -7.4696    1.0228    0.7152 H   0  0  0  0  0  0  0  0  0  0  0  0
    6.3245    2.3395   -0.1085 C   0  0  0  0  0  3  0  0  0  0  0  0
    6.7408    3.3531   -0.0333 H   0  0  0  0  0  0  0  0  0  0  0  0
    6.8272    0.0229   -0.4315 C   0  0  0  0  0  0  0  0  0  0  0  0
    7.6214   -0.7169   -0.6015 H   0  0  0  0  0  0  0  0  0  0  0  0
    4.9764    2.0602   -0.0036 C   0  0  0  0  0  0  0  0  0  0  0  0
    4.2481    2.8649    0.1631 H   0  0  0  0  0  0  0  0  0  0  0  0
   -6.8420    1.9283   -1.1618 C   0  0  0  0  0  0  0  0  0  0  0  0
   -5.9328    2.3367   -1.6460 H   0  0  0  0  0  0  0  0  0  0  0  0
   -7.6061    2.7302   -1.1345 H   0  0  0  0  0  0  0  0  0  0  0  0
   -7.2305    1.1124   -1.8014 H   0  0  0  0  0  0  0  0  0  0  0  0
   -5.9863   -1.0052    0.3123 C   0  0  0  0  0  0  0  0  0  0  0  0
   -7.0251   -1.0063    0.6955 H   0  0  0  0  0  0  0  0  0  0  0  0
   -5.3925   -1.5890    1.0453 H   0  0  0  0  0  0  0  0  0  0  0  0
   -5.9326   -1.6620   -1.0695 C   0  0  0  0  0  0  0  0  0  0  0  0
   -6.5901   -1.1412   -1.7920 H   0  0  0  0  0  0  0  0  0  0  0  0
   -6.2723   -2.7141   -0.9982 H   0  0  0  0  0  0  0  0  0  0  0  0
   -4.9046   -1.6626   -1.4824 H   0  0  0  0  0  0  0  0  0  0  0  0
  1  3  1  0  0  0  0
  3 14  1  0  0  0  0
  4  7  1  0  0  0  0
  5 26  1  0  0  0  0
  6  5  1  0  0  0  0
  7  1  2  0  0  0  0
  8  9  1  0  0  0  0
 11 16  2  0  0  0  0
 11 18  1  0  0  0  0
 12 11  1  0  0  0  0
 13  7  1  0  0  0  0
 13 30  2  0  0  0  0
 14 15  1  0  0  0  0
 14 18  1  0  0  0  0
 16 20  1  0  0  0  0
 17 16  1  0  0  0  0
 18 19  2  0  0  0  0
 19  8  1  0  0  0  0
 19  2  1  0  0  0  0
 20 10  1  0  0  0  0
 20  8  2  0  0  0  0
 21 13  1  0  0  0  0
 22 21  1  0  0  0  0
 23 10  1  0  0  0  0
 23 25  1  0  0  0  0
 23 24  1  0  0  0  0
 26 27  1  0  0  0  0
 26 30  1  0  0  0  0
 28 21  2  0  0  0  0
 28  5  1  0  0  0  0
 29 28  1  0  0  0  0
 30 31  1  0  0  0  0
 32 34  1  0  0  0  0
 32 23  1  0  0  0  0
 33 32  1  0  0  0  0
 35 32  1  0  0  0  0
 36 10  1  0  0  0  0
 36 37  1  0  0  0  0
 36 38  1  0  0  0  0
 39 41  1  0  0  0  0
 39 36  1  0  0  0  0
 40 39  1  0  0  0  0
 42 39  1  0  0  0  0
M  CHG  2   2  -1   4  -1
M  END
