1,2,4
 OpenBabel05122313063D

 32 33  0  0  0  0  0  0  0  0999 V2000
    1.9349   -1.7108   -0.3228 O   0  5  0  0  0  0  0  0  0  0  0  0
   -1.6374   -0.5482    0.1226 O   0  5  0  0  0  0  0  0  0  0  0  0
   -4.2412   -0.3337    0.1759 O   0  0  0  0  0  0  0  0  0  0  0  0
    0.8312    0.6419   -0.1425 N   0  0  0  0  0  2  0  0  0  0  0  0
    2.7764   -0.6810   -0.2138 C   0  0  0  0  0  0  0  0  0  0  0  0
    4.1758   -0.8530   -0.2086 C   0  0  0  0  0  0  0  0  0  0  0  0
    4.5829   -1.8673   -0.3235 H   0  0  0  0  0  0  0  0  0  0  0  0
    5.0055    0.2589   -0.0455 C   0  0  0  0  0  0  0  0  0  0  0  0
    6.0976    0.1149   -0.0329 H   0  0  0  0  0  0  0  0  0  0  0  0
    4.4830    1.5670    0.1175 C   0  0  0  0  0  0  0  0  0  0  0  0
    3.0900    1.7319    0.1013 C   0  0  0  0  0  0  0  0  0  0  0  0
    2.6711    2.7407    0.2384 H   0  0  0  0  0  0  0  0  0  0  0  0
    2.2329    0.6266   -0.0796 C   0  0  0  0  0  0  0  0  0  0  0  0
    5.4110    2.7415    0.3041 C   0  0  0  0  0  0  0  0  0  0  0  0
    6.0815    2.8703   -0.5716 H   0  0  0  0  0  0  0  0  0  0  0  0
    6.0658    2.6049    1.1902 H   0  0  0  0  0  0  0  0  0  0  0  0
    4.8521    3.6875    0.4408 H   0  0  0  0  0  0  0  0  0  0  0  0
    0.1268    1.7442   -0.2008 C   0  0  0  0  0  3  0  0  0  0  0  0
    0.6564    2.7170   -0.2460 H   0  0  0  0  0  0  0  0  0  0  0  0
   -1.3118    1.8251   -0.2126 C   0  0  0  0  0  0  0  0  0  0  0  0
   -2.1290    0.6693   -0.0446 C   0  0  0  0  0  0  0  0  0  0  0  0
   -3.5534    0.8191   -0.0096 C   0  0  0  0  0  0  0  0  0  0  0  0
   -4.1234    2.0919   -0.1587 C   0  0  0  0  0  0  0  0  0  0  0  0
   -5.2151    2.2102   -0.1410 H   0  0  0  0  0  0  0  0  0  0  0  0
   -3.3059    3.2316   -0.3320 C   0  0  0  0  0  0  0  0  0  0  0  0
   -3.7756    4.2189   -0.4491 H   0  0  0  0  0  0  0  0  0  0  0  0
   -1.9234    3.1044   -0.3522 C   0  0  0  0  0  0  0  0  0  0  0  0
   -1.2793    3.9875   -0.4814 H   0  0  0  0  0  0  0  0  0  0  0  0
   -5.6543   -0.2737    0.1908 C   0  0  0  0  0  0  0  0  0  0  0  0
   -6.0086   -1.3103    0.3385 H   0  0  0  0  0  0  0  0  0  0  0  0
   -6.0612    0.1150   -0.7697 H   0  0  0  0  0  0  0  0  0  0  0  0
   -6.0339    0.3622    1.0226 H   0  0  0  0  0  0  0  0  0  0  0  0
  1  5  1  0  0  0  0
  3 29  1  0  0  0  0
  4 13  1  0  0  0  0
  5  6  2  0  0  0  0
  5 13  1  0  0  0  0
  6  8  1  0  0  0  0
  7  6  1  0  0  0  0
  8  9  1  0  0  0  0
  8 10  2  0  0  0  0
 10 14  1  0  0  0  0
 11 10  1  0  0  0  0
 11 12  1  0  0  0  0
 13 11  2  0  0  0  0
 14 17  1  0  0  0  0
 14 16  1  0  0  0  0
 15 14  1  0  0  0  0
 18  4  1  0  0  0  0
 19 18  1  0  0  0  0
 20 18  1  0  0  0  0
 20 21  1  0  0  0  0
 21 22  2  0  0  0  0
 21  2  1  0  0  0  0
 22  3  1  0  0  0  0
 23 24  1  0  0  0  0
 23 22  1  0  0  0  0
 25 23  2  0  0  0  0
 26 25  1  0  0  0  0
 27 25  1  0  0  0  0
 27 20  2  0  0  0  0
 28 27  1  0  0  0  0
 29 30  1  0  0  0  0
 29 32  1  0  0  0  0
 31 29  1  0  0  0  0
M  CHG  2   1  -1   2  -1
M  END
