1,2,3
 OpenBabel05122313063D

 28 29  0  0  0  0  0  0  0  0999 V2000
   -1.5311   -1.6036   -0.3000 O   0  5  0  0  0  0  0  0  0  0  0  0
    2.1323   -0.7090    0.0945 O   0  5  0  0  0  0  0  0  0  0  0  0
   -0.2695    0.6649   -0.1053 N   0  0  0  0  0  2  0  0  0  0  0  0
   -2.3022   -0.5123   -0.2718 C   0  0  0  0  0  0  0  0  0  0  0  0
   -1.6721    0.7550   -0.1329 C   0  0  0  0  0  0  0  0  0  0  0  0
    1.9474    1.6994    0.0089 C   0  0  0  0  0  0  0  0  0  0  0  0
    0.5105    1.7153   -0.0435 C   0  0  0  0  0  3  0  0  0  0  0  0
    0.0497    2.7235   -0.0345 H   0  0  0  0  0  0  0  0  0  0  0  0
    4.1174    0.5566    0.1366 C   0  0  0  0  0  0  0  0  0  0  0  0
    4.6754   -0.3890    0.1849 H   0  0  0  0  0  0  0  0  0  0  0  0
   -4.4640    0.5856   -0.2448 C   0  0  0  0  0  0  0  0  0  0  0  0
   -5.5626    0.5199   -0.2919 H   0  0  0  0  0  0  0  0  0  0  0  0
   -3.7083   -0.5859   -0.3372 C   0  0  0  0  0  0  0  0  0  0  0  0
   -4.1802   -1.5717   -0.4533 H   0  0  0  0  0  0  0  0  0  0  0  0
   -2.4568    1.9224   -0.0288 C   0  0  0  0  0  0  0  0  0  0  0  0
   -1.9765    2.9048    0.0967 H   0  0  0  0  0  0  0  0  0  0  0  0
   -3.8573    1.8570   -0.0867 C   0  0  0  0  0  0  0  0  0  0  0  0
    2.7059    0.4841    0.0708 C   0  0  0  0  0  0  0  0  0  0  0  0
    4.7657    1.7931    0.1398 C   0  0  0  0  0  0  0  0  0  0  0  0
    5.8649    1.8250    0.1900 H   0  0  0  0  0  0  0  0  0  0  0  0
    2.6407    2.9406    0.0196 C   0  0  0  0  0  0  0  0  0  0  0  0
    2.0493    3.8691   -0.0261 H   0  0  0  0  0  0  0  0  0  0  0  0
   -4.7053    3.1012    0.0056 C   0  0  0  0  0  0  0  0  0  0  0  0
   -5.2757    3.2714   -0.9319 H   0  0  0  0  0  0  0  0  0  0  0  0
   -4.0907    4.0031    0.1917 H   0  0  0  0  0  0  0  0  0  0  0  0
   -5.4512    3.0244    0.8238 H   0  0  0  0  0  0  0  0  0  0  0  0
    4.0301    2.9969    0.0812 C   0  0  0  0  0  0  0  0  0  0  0  0
    4.5484    3.9664    0.0835 H   0  0  0  0  0  0  0  0  0  0  0  0
  1  4  1  0  0  0  0
  3  7  1  0  0  0  0
  4  5  1  0  0  0  0
  5  3  1  0  0  0  0
  5 15  2  0  0  0  0
  6 21  2  0  0  0  0
  6 18  1  0  0  0  0
  7  8  1  0  0  0  0
  7  6  1  0  0  0  0
  9 19  1  0  0  0  0
  9 10  1  0  0  0  0
 11 17  2  0  0  0  0
 12 11  1  0  0  0  0
 13  4  2  0  0  0  0
 13 11  1  0  0  0  0
 14 13  1  0  0  0  0
 15 16  1  0  0  0  0
 17 15  1  0  0  0  0
 17 23  1  0  0  0  0
 18  2  1  0  0  0  0
 18  9  2  0  0  0  0
 19 20  1  0  0  0  0
 21 27  1  0  0  0  0
 22 21  1  0  0  0  0
 23 25  1  0  0  0  0
 23 26  1  0  0  0  0
 24 23  1  0  0  0  0
 27 28  1  0  0  0  0
 27 19  2  0  0  0  0
M  CHG  2   1  -1   2  -1
M  END
