2,4,5
 OpenBabel05122313063D

 34 36  0  0  0  0  0  0  0  0999 V2000
   -6.9410   -0.1637   -0.1674 Cl  0  0  0  0  0  0  0  0  0  0  0  0
    0.4378   -0.4713   -0.1697 N   0  0  0  0  0  2  0  0  0  0  0  0
   -0.6403   -1.3070   -0.1126 N   0  0  0  0  0  0  0  0  0  0  0  0
    1.7977    1.7827    0.0031 O   0  5  0  0  0  0  0  0  0  0  0  0
   -1.7257    0.7158   -0.2049 O   0  5  0  0  0  0  0  0  0  0  0  0
    2.8792   -0.3533   -0.0846 C   0  0  0  0  0  0  0  0  0  0  0  0
    2.9011    1.0687   -0.0069 C   0  0  0  0  0  0  0  0  0  0  0  0
    4.1456    1.7644    0.0918 C   0  0  0  0  0  0  0  0  0  0  0  0
    4.1101    2.8607    0.1600 H   0  0  0  0  0  0  0  0  0  0  0  0
    5.3360    1.0692    0.1002 C   0  0  0  0  0  0  0  0  0  0  0  0
    6.2901    1.6142    0.1756 H   0  0  0  0  0  0  0  0  0  0  0  0
    5.3721   -0.3572    0.0083 C   0  0  0  0  0  0  0  0  0  0  0  0
    6.6096   -1.0591    0.0074 C   0  0  0  0  0  0  0  0  0  0  0  0
    7.5414   -0.4771    0.0832 H   0  0  0  0  0  0  0  0  0  0  0  0
    6.6483   -2.4430   -0.0886 C   0  0  0  0  0  0  0  0  0  0  0  0
    7.6108   -2.9757   -0.0888 H   0  0  0  0  0  0  0  0  0  0  0  0
    5.4349   -3.1655   -0.1911 C   0  0  0  0  0  0  0  0  0  0  0  0
    5.4569   -4.2627   -0.2738 H   0  0  0  0  0  0  0  0  0  0  0  0
    4.2112   -2.5046   -0.1929 C   0  0  0  0  0  0  0  0  0  0  0  0
    3.2934   -3.1013   -0.2852 H   0  0  0  0  0  0  0  0  0  0  0  0
    4.1332   -1.0869   -0.0888 C   0  0  0  0  0  0  0  0  0  0  0  0
    1.6244   -1.0405   -0.1035 C   0  0  0  0  0  3  0  0  0  0  0  0
    1.6036   -2.1417   -0.0418 H   0  0  0  0  0  0  0  0  0  0  0  0
   -1.7502   -0.5942   -0.1572 C   0  0  0  0  0  0  0  0  0  0  0  0
   -3.0634   -1.2713   -0.1203 C   0  0  0  0  0  0  0  0  0  0  0  0
   -4.2375   -0.4919   -0.1607 C   0  0  0  0  0  0  0  0  0  0  0  0
   -4.1605    0.6012   -0.2280 H   0  0  0  0  0  0  0  0  0  0  0  0
   -5.4851   -1.1278   -0.1187 C   0  0  0  0  0  0  0  0  0  0  0  0
   -5.5849   -2.5268   -0.0386 C   0  0  0  0  0  0  0  0  0  0  0  0
   -6.5757   -3.0013   -0.0077 H   0  0  0  0  0  0  0  0  0  0  0  0
   -4.4080   -3.2933   -0.0006 C   0  0  0  0  0  0  0  0  0  0  0  0
   -4.4812   -4.3896    0.0607 H   0  0  0  0  0  0  0  0  0  0  0  0
   -3.1521   -2.6783   -0.0406 C   0  0  0  0  0  0  0  0  0  0  0  0
   -2.2230   -3.2637   -0.0118 H   0  0  0  0  0  0  0  0  0  0  0  0
  1 28  1  0  0  0  0
  2  3  1  0  0  0  0
  2 22  1  0  0  0  0
  5 24  1  0  0  0  0
  6  7  1  0  0  0  0
  7  4  1  0  0  0  0
  7  8  2  0  0  0  0
  8 10  1  0  0  0  0
  8  9  1  0  0  0  0
 10 11  1  0  0  0  0
 12 10  2  0  0  0  0
 13 12  1  0  0  0  0
 13 14  1  0  0  0  0
 15 13  2  0  0  0  0
 16 15  1  0  0  0  0
 17 15  1  0  0  0  0
 18 17  1  0  0  0  0
 19 17  2  0  0  0  0
 19 21  1  0  0  0  0
 20 19  1  0  0  0  0
 21  6  2  0  0  0  0
 21 12  1  0  0  0  0
 22  6  1  0  0  0  0
 22 23  1  0  0  0  0
 24 25  1  0  0  0  0
 24  3  2  0  0  0  0
 25 33  1  0  0  0  0
 26 25  2  0  0  0  0
 26 28  1  0  0  0  0
 27 26  1  0  0  0  0
 28 29  2  0  0  0  0
 29 30  1  0  0  0  0
 29 31  1  0  0  0  0
 31 32  1  0  0  0  0
 33 34  1  0  0  0  0
 33 31  2  0  0  0  0
M  CHG  2   4  -1   5  -1
M  END
