1,25,29
 OpenBabel05122313063D

 33 34  0  0  0  0  0  0  0  0999 V2000
    0.9708    0.5114    1.1708 O   0  0  0  0  0  1  0  0  0  0  0  0
    1.8000   -0.4097    0.7418 N   0  0  0  0  0  0  0  0  0  0  0  0
    2.3241   -1.4092    1.7267 C   0  0  0  0  0  0  0  0  0  0  0  0
    1.1807   -2.2281    2.3240 C   0  0  0  0  0  0  0  0  0  0  0  0
    1.5622   -2.8925    3.1234 H   0  0  0  0  0  0  0  0  0  0  0  0
    0.6644   -2.8474    1.5702 H   0  0  0  0  0  0  0  0  0  0  0  0
    0.4406   -1.5346    2.7679 H   0  0  0  0  0  0  0  0  0  0  0  0
    3.0111   -0.5966    2.8416 C   0  0  0  0  0  0  0  0  0  0  0  0
    3.4233   -1.2630    3.6227 H   0  0  0  0  0  0  0  0  0  0  0  0
    2.2610    0.0731    3.3027 H   0  0  0  0  0  0  0  0  0  0  0  0
    3.8289    0.0323    2.4394 H   0  0  0  0  0  0  0  0  0  0  0  0
    3.3331   -2.2072    0.8241 C   0  0  0  0  0  0  0  0  0  0  0  0
    2.7256   -3.4248    0.1129 C   0  0  0  0  0  0  0  0  0  0  0  0
    2.5631   -4.2600    0.8208 H   0  0  0  0  0  0  0  0  0  0  0  0
    3.4335   -3.7532   -0.6721 H   0  0  0  0  0  0  0  0  0  0  0  0
    1.7632   -3.1749   -0.3718 H   0  0  0  0  0  0  0  0  0  0  0  0
    4.6503   -2.5935    1.4899 C   0  0  0  0  0  0  0  0  0  0  0  0
    5.1631   -1.7273    1.9448 H   0  0  0  0  0  0  0  0  0  0  0  0
    5.3206   -3.0125    0.7156 H   0  0  0  0  0  0  0  0  0  0  0  0
    4.4793   -3.3601    2.2705 H   0  0  0  0  0  0  0  0  0  0  0  0
    3.6254   -1.1989   -0.2835 N   0  0  0  0  0  0  0  0  0  0  0  0
    4.5414   -1.4034   -1.1328 O   0  0  0  0  0  1  0  0  0  0  0  0
    2.6856   -0.2330   -0.3024 C   0  0  0  0  0  3  0  0  0  0  0  0
    2.4970    0.7756   -1.3054 C   0  0  0  0  0  0  0  0  0  0  0  0
    1.3955    1.5592   -1.2257 N   0  0  0  0  0  2  0  0  0  0  0  0
    1.4171    2.4537   -2.2689 C   0  0  0  0  0  0  0  0  0  0  0  0
    0.3166    3.3654   -2.2411 C   0  0  0  0  0  3  0  0  0  0  0  0
    0.2317    4.1768   -3.0035 H   0  0  0  0  0  0  0  0  0  0  0  0
   -0.5587    3.2697   -1.3437 O   0  0  0  0  0  1  0  0  0  0  0  0
    2.5899    2.2258   -3.0490 C   0  0  0  0  0  0  0  0  0  0  0  0
    2.8952    2.7830   -3.9424 H   0  0  0  0  0  0  0  0  0  0  0  0
    3.2728    1.1600   -2.4458 C   0  0  0  0  0  0  0  0  0  0  0  0
    4.2127    0.6863   -2.7459 H   0  0  0  0  0  0  0  0  0  0  0  0
  2  1  1  0  0  0  0
  2  3  1  0  0  0  0
  3  4  1  0  0  0  0
  3  8  1  0  0  0  0
  4  7  1  0  0  0  0
  4  5  1  0  0  0  0
  6  4  1  0  0  0  0
  8 10  1  0  0  0  0
  8  9  1  0  0  0  0
 11  8  1  0  0  0  0
 12 17  1  0  0  0  0
 12  3  1  0  0  0  0
 13 14  1  0  0  0  0
 13 12  1  0  0  0  0
 15 13  1  0  0  0  0
 16 13  1  0  0  0  0
 17 18  1  0  0  0  0
 17 20  1  0  0  0  0
 19 17  1  0  0  0  0
 21 12  1  0  0  0  0
 22 21  1  0  0  0  0
 23 21  1  0  0  0  0
 23  2  1  0  0  0  0
 24 25  1  0  0  0  0
 24 23  1  0  0  0  0
 26 27  1  0  0  0  0
 26 25  1  0  0  0  0
 27 29  1  0  0  0  0
 28 27  1  0  0  0  0
 30 32  1  0  0  0  0
 30 26  2  0  0  0  0
 31 30  1  0  0  0  0
 32 24  2  0  0  0  0
 33 32  1  0  0  0  0
M  END
