1,2,3
 OpenBabel05122313063D

 33 34  0  0  1  0  0  0  0  0999 V2000
   -2.2057    0.2430   -0.7781 O   0  5  0  0  0  0  0  0  0  0  0  0
    1.4768   -0.4994   -0.2396 O   0  5  0  0  0  0  0  0  0  0  0  0
   -0.6382   -1.8311    0.3094 N   0  0  0  0  0  2  0  0  0  0  0  0
    0.5384   -2.4518    0.6043 N   0  0  0  0  0  0  0  0  0  0  0  0
    2.8172   -2.2302    0.5293 N   0  0  0  0  0  0  0  0  0  0  0  0
   -3.1991   -0.4883   -0.3302 C   0  0  0  0  0  0  0  0  0  0  0  0
   -4.5081    0.0460   -0.5278 C   0  0  0  0  0  0  0  0  0  0  0  0
   -5.6487   -0.6263   -0.1032 C   0  0  0  0  0  0  0  0  0  0  0  0
   -5.5350   -1.8771    0.5391 C   0  0  0  0  0  0  0  0  0  0  0  0
   -4.2698   -2.4243    0.7351 C   0  0  0  0  0  0  0  0  0  0  0  0
   -3.0733   -1.7705    0.3226 C   0  0  0  0  0  0  0  0  0  0  0  0
   -1.7946   -2.4283    0.5670 C   0  0  2  0  0  3  0  0  0  0  0  0
   -1.7670   -3.8227    1.1377 C   0  0  0  0  0  0  0  0  0  0  0  0
    1.5768   -1.6817    0.2722 C   0  0  0  0  0  0  0  0  0  0  0  0
    4.0991   -1.7141    0.3328 C   0  0  0  0  0  0  0  0  0  0  0  0
    5.1955   -2.5124    0.7420 C   0  0  0  0  0  0  0  0  0  0  0  0
    6.5091   -2.0618    0.5767 C   0  0  0  0  0  0  0  0  0  0  0  0
    6.7644   -0.8061    0.0016 C   0  0  0  0  0  0  0  0  0  0  0  0
    5.6790   -0.0144   -0.4059 C   0  0  0  0  0  0  0  0  0  0  0  0
    4.3564   -0.4497   -0.2494 C   0  0  0  0  0  0  0  0  0  0  0  0
    7.3428   -2.7027    0.9023 H   0  0  0  0  0  0  0  0  0  0  0  0
    3.5108    0.1674   -0.5734 H   0  0  0  0  0  0  0  0  0  0  0  0
    2.7564   -3.1662    0.9326 H   0  0  0  0  0  0  0  0  0  0  0  0
   -2.3750   -4.5034    0.5093 H   0  0  0  0  0  0  0  0  0  0  0  0
    5.0047   -3.4993    1.1940 H   0  0  0  0  0  0  0  0  0  0  0  0
   -4.5688    1.0185   -1.0376 H   0  0  0  0  0  0  0  0  0  0  0  0
    7.7973   -0.4512   -0.1290 H   0  0  0  0  0  0  0  0  0  0  0  0
   -6.4299   -2.4191    0.8775 H   0  0  0  0  0  0  0  0  0  0  0  0
   -0.7265   -4.1843    1.1748 H   0  0  0  0  0  0  0  0  0  0  0  0
   -6.6397   -0.1772   -0.2742 H   0  0  0  0  0  0  0  0  0  0  0  0
   -4.1937   -3.4014    1.2304 H   0  0  0  0  0  0  0  0  0  0  0  0
   -2.1928   -3.8474    2.1623 H   0  0  0  0  0  0  0  0  0  0  0  0
    5.8611    0.9710   -0.8625 H   0  0  0  0  0  0  0  0  0  0  0  0
  1  6  1  0  0  0  0
  2 14  1  0  0  0  0
  3  4  1  0  0  0  0
  5 23  1  0  0  0  0
  6 11  1  0  0  0  0
  7  6  2  0  0  0  0
  7  8  1  0  0  0  0
  8  9  2  0  0  0  0
  9 10  1  0  0  0  0
  9 28  1  0  0  0  0
 10 31  1  0  0  0  0
 11 12  1  0  0  0  0
 11 10  2  0  0  0  0
 12  3  1  1  0  0  0
 12 13  1  0  0  0  0
 13 29  1  0  0  0  0
 13 32  1  0  0  0  0
 14  5  1  0  0  0  0
 14  4  2  0  0  0  0
 15  5  1  0  0  0  0
 15 16  1  0  0  0  0
 16 25  1  0  0  0  0
 17 16  2  0  0  0  0
 17 21  1  0  0  0  0
 18 17  1  0  0  0  0
 19 20  1  0  0  0  0
 19 18  2  0  0  0  0
 20 15  2  0  0  0  0
 22 20  1  0  0  0  0
 24 13  1  0  0  0  0
 26  7  1  0  0  0  0
 27 18  1  0  0  0  0
 30  8  1  0  0  0  0
 33 19  1  0  0  0  0
M  CHG  2   1  -1   2  -1
M  END
