2,4,5
 OpenBabel05122313063D

 23 23  0  0  1  0  0  0  0  0999 V2000
    6.0508   -4.0225    0.0097 Cl  0  0  0  0  0  0  0  0  0  0  0  0
   -0.8602    3.5296   -0.0962 O   0  5  0  0  0  0  0  0  0  0  0  0
   -1.2260    4.6394    1.8454 O   0  0  0  0  0  0  0  0  0  0  0  0
    1.3938    0.7234   -1.0704 O   0  5  0  0  0  0  0  0  0  0  0  0
    1.0282    2.2091    0.8225 N   0  0  0  0  0  2  0  0  0  0  0  0
    1.9919    1.3034    1.0783 N   0  0  0  0  0  0  0  0  0  0  0  0
   -0.6051    3.8321    1.1740 C   0  0  0  0  0  0  0  0  0  0  0  0
    0.5507    3.0254    1.7193 C   0  0  1  0  0  3  0  0  0  0  0  0
    1.0092    3.1266    3.1269 C   0  0  0  0  0  0  0  0  0  0  0  0
    0.8860    2.1513    3.6430 H   0  0  0  0  0  0  0  0  0  0  0  0
    0.4224    3.9067    3.6451 H   0  0  0  0  0  0  0  0  0  0  0  0
    2.0917    3.3666    3.1688 H   0  0  0  0  0  0  0  0  0  0  0  0
    2.1135    0.5309   -0.0048 C   0  0  0  0  0  0  0  0  0  0  0  0
    3.0820   -0.5823    0.0072 C   0  0  0  0  0  0  0  0  0  0  0  0
    3.8719   -0.8404    1.1491 C   0  0  0  0  0  0  0  0  0  0  0  0
    3.7513   -0.1945    2.0301 H   0  0  0  0  0  0  0  0  0  0  0  0
    4.7866   -1.8965    1.1540 C   0  0  0  0  0  0  0  0  0  0  0  0
    5.4065   -2.1055    2.0369 H   0  0  0  0  0  0  0  0  0  0  0  0
    4.9129   -2.7032    0.0079 C   0  0  0  0  0  0  0  0  0  0  0  0
    4.1355   -2.4611   -1.1383 C   0  0  0  0  0  0  0  0  0  0  0  0
    4.2543   -3.1038   -2.0217 H   0  0  0  0  0  0  0  0  0  0  0  0
    3.2236   -1.4011   -1.1329 C   0  0  0  0  0  0  0  0  0  0  0  0
    2.6050   -1.1870   -2.0160 H   0  0  0  0  0  0  0  0  0  0  0  0
  2  7  1  0  0  0  0
  4 13  1  0  0  0  0
  5  6  1  0  0  0  0
  7  8  1  0  0  0  0
  7  3  2  0  0  0  0
  8  5  1  1  0  0  0
  8  9  1  0  0  0  0
  9 12  1  0  0  0  0
  9 10  1  0  0  0  0
  9 11  1  0  0  0  0
 13 14  1  0  0  0  0
 13  6  2  0  0  0  0
 14 15  1  0  0  0  0
 15 17  2  0  0  0  0
 15 16  1  0  0  0  0
 17 18  1  0  0  0  0
 19  1  1  0  0  0  0
 19 17  1  0  0  0  0
 20 22  1  0  0  0  0
 20 19  2  0  0  0  0
 21 20  1  0  0  0  0
 22 14  2  0  0  0  0
 23 22  1  0  0  0  0
M  CHG  2   2  -1   4  -1
M  END
