1,2,5
 OpenBabel05122313063D

 54 54  0  0  0  0  0  0  0  0999 V2000
   -0.5816    0.8730   -0.1620 O   0  5  0  0  0  0  0  0  0  0  0  0
   -3.9356   -0.7627   -0.1959 O   0  0  0  0  0  1  0  0  0  0  0  0
   -2.4509    0.5308    1.8990 O   0  0  0  0  0  0  0  0  0  0  0  0
   -3.3044    0.9414    2.1354 H   0  0  0  0  0  0  0  0  0  0  0  0
   -1.5235   -1.6956    0.3746 N   0  0  0  0  0  0  0  0  0  0  0  0
    0.6516    0.3451   -0.1635 C   0  0  0  0  0  0  0  0  0  0  0  0
    1.7773    1.2121   -0.0006 C   0  0  0  0  0  0  0  0  0  0  0  0
    3.0494    0.6210   -0.0072 C   0  0  0  0  0  0  0  0  0  0  0  0
    3.9228    1.2765    0.1038 H   0  0  0  0  0  0  0  0  0  0  0  0
    3.2734   -0.7673   -0.1363 C   0  0  0  0  0  0  0  0  0  0  0  0
    2.1428   -1.5868   -0.2547 C   0  0  0  0  0  0  0  0  0  0  0  0
    2.2525   -2.6780   -0.3355 H   0  0  0  0  0  0  0  0  0  0  0  0
    0.8397   -1.0556   -0.2789 C   0  0  0  0  0  0  0  0  0  0  0  0
   -0.3225   -2.0074   -0.4478 C   0  0  0  0  0  0  0  0  0  0  0  0
   -0.6681   -2.0154   -1.5032 H   0  0  0  0  0  0  0  0  0  0  0  0
    0.0322   -3.0370   -0.2085 H   0  0  0  0  0  0  0  0  0  0  0  0
   -2.5984   -2.7040    0.1735 C   0  0  0  0  0  0  0  0  0  0  0  0
   -2.9746   -3.0215    1.1666 H   0  0  0  0  0  0  0  0  0  0  0  0
   -2.1934   -3.6114   -0.3227 H   0  0  0  0  0  0  0  0  0  0  0  0
   -3.7503   -2.0834   -0.6331 C   0  0  0  0  0  0  0  0  0  0  0  0
   -3.5053   -2.0927   -1.7229 H   0  0  0  0  0  0  0  0  0  0  0  0
   -4.6841   -2.6706   -0.4830 H   0  0  0  0  0  0  0  0  0  0  0  0
   -1.2096   -1.4964    1.8064 C   0  0  0  0  0  0  0  0  0  0  0  0
   -0.2746   -0.9065    1.8716 H   0  0  0  0  0  0  0  0  0  0  0  0
   -1.0234   -2.4707    2.3160 H   0  0  0  0  0  0  0  0  0  0  0  0
   -2.3195   -0.7466    2.5270 C   0  0  0  0  0  0  0  0  0  0  0  0
   -3.2803   -1.3048    2.4739 H   0  0  0  0  0  0  0  0  0  0  0  0
   -2.0422   -0.6289    3.5977 H   0  0  0  0  0  0  0  0  0  0  0  0
    4.7116   -1.3135   -0.1284 C   0  0  0  0  0  0  0  0  0  0  0  0
    4.7492   -2.8450   -0.2671 C   0  0  0  0  0  0  0  0  0  0  0  0
    4.2894   -3.1838   -1.2175 H   0  0  0  0  0  0  0  0  0  0  0  0
    4.2237   -3.3478    0.5700 H   0  0  0  0  0  0  0  0  0  0  0  0
    5.8000   -3.1986   -0.2607 H   0  0  0  0  0  0  0  0  0  0  0  0
    5.4003   -0.9284    1.2007 C   0  0  0  0  0  0  0  0  0  0  0  0
    5.4368    0.1701    1.3414 H   0  0  0  0  0  0  0  0  0  0  0  0
    6.4441   -1.3052    1.2226 H   0  0  0  0  0  0  0  0  0  0  0  0
    4.8589   -1.3609    2.0665 H   0  0  0  0  0  0  0  0  0  0  0  0
    5.4945   -0.6981   -1.3108 C   0  0  0  0  0  0  0  0  0  0  0  0
    5.0216   -0.9625   -2.2780 H   0  0  0  0  0  0  0  0  0  0  0  0
    6.5399   -1.0711   -1.3227 H   0  0  0  0  0  0  0  0  0  0  0  0
    5.5319    0.4074   -1.2463 H   0  0  0  0  0  0  0  0  0  0  0  0
    1.5869    2.7291    0.1904 C   0  0  0  0  0  0  0  0  0  0  0  0
    2.9352    3.4592    0.3359 C   0  0  0  0  0  0  0  0  0  0  0  0
    2.7506    4.5429    0.4774 H   0  0  0  0  0  0  0  0  0  0  0  0
    3.5698    3.3459   -0.5666 H   0  0  0  0  0  0  0  0  0  0  0  0
    3.5122    3.1037    1.2138 H   0  0  0  0  0  0  0  0  0  0  0  0
    0.8560    3.3356   -1.0312 C   0  0  0  0  0  0  0  0  0  0  0  0
   -0.1573    2.9140   -1.1564 H   0  0  0  0  0  0  0  0  0  0  0  0
    1.4291    3.1491   -1.9621 H   0  0  0  0  0  0  0  0  0  0  0  0
    0.7582    4.4337   -0.9045 H   0  0  0  0  0  0  0  0  0  0  0  0
    0.7717    2.9827    1.4820 C   0  0  0  0  0  0  0  0  0  0  0  0
   -0.2176    2.4904    1.4448 H   0  0  0  0  0  0  0  0  0  0  0  0
    0.6125    4.0719    1.6224 H   0  0  0  0  0  0  0  0  0  0  0  0
    1.3202    2.6017    2.3682 H   0  0  0  0  0  0  0  0  0  0  0  0
  3  4  1  0  0  0  0
  3 26  1  0  0  0  0
  5 23  1  0  0  0  0
  6  1  1  0  0  0  0
  6  7  1  0  0  0  0
  7 42  1  0  0  0  0
  8  7  2  0  0  0  0
  8  9  1  0  0  0  0
 10 29  1  0  0  0  0
 10  8  1  0  0  0  0
 11 10  2  0  0  0  0
 12 11  1  0  0  0  0
 13 11  1  0  0  0  0
 13  6  2  0  0  0  0
 14 13  1  0  0  0  0
 14 16  1  0  0  0  0
 14  5  1  0  0  0  0
 15 14  1  0  0  0  0
 17  5  1  0  0  0  0
 17 18  1  0  0  0  0
 19 17  1  0  0  0  0
 20 22  1  0  0  0  0
 20  2  1  0  0  0  0
 20 17  1  0  0  0  0
 21 20  1  0  0  0  0
 23 24  1  0  0  0  0
 23 25  1  0  0  0  0
 23 26  1  0  0  0  0
 26 28  1  0  0  0  0
 27 26  1  0  0  0  0
 29 34  1  0  0  0  0
 30 33  1  0  0  0  0
 30 29  1  0  0  0  0
 30 32  1  0  0  0  0
 31 30  1  0  0  0  0
 34 36  1  0  0  0  0
 34 35  1  0  0  0  0
 34 37  1  0  0  0  0
 38 41  1  0  0  0  0
 38 29  1  0  0  0  0
 39 38  1  0  0  0  0
 40 38  1  0  0  0  0
 42 43  1  0  0  0  0
 42 51  1  0  0  0  0
 43 44  1  0  0  0  0
 43 46  1  0  0  0  0
 45 43  1  0  0  0  0
 47 50  1  0  0  0  0
 47 42  1  0  0  0  0
 48 47  1  0  0  0  0
 49 47  1  0  0  0  0
 51 53  1  0  0  0  0
 51 54  1  0  0  0  0
 52 51  1  0  0  0  0
M  CHG  1   1  -1
M  END
