1,11,40
 OpenBabel05122313063D

 67 69  0  0  1  0  0  0  0  0999 V2000
   -0.0374   -1.0784    0.1019 N   0  0  0  0  0  2  0  0  0  0  0  0
    1.1371   -1.7355    0.1030 C   0  0  1  0  0  3  0  0  0  0  0  0
    1.1533   -3.1341    0.2069 C   0  0  0  0  0  0  0  0  0  0  0  0
    2.1049   -3.6843    0.2052 H   0  0  0  0  0  0  0  0  0  0  0  0
   -0.0741   -3.8079    0.3227 C   0  0  0  0  0  0  0  0  0  0  0  0
   -0.0889   -4.9051    0.4122 H   0  0  0  0  0  0  0  0  0  0  0  0
   -1.2829   -3.0917    0.3240 C   0  0  0  0  0  0  0  0  0  0  0  0
   -2.2488   -3.6090    0.4108 H   0  0  0  0  0  0  0  0  0  0  0  0
   -1.2293   -1.6954    0.2010 C   0  0  0  0  0  0  0  0  0  0  0  0
   -2.3820   -0.6960    0.1846 C   0  0  1  0  0  0  0  0  0  0  0  0
   -1.8222    0.5701   -0.0352 O   0  0  0  0  0  1  0  0  0  0  0  0
   -3.4238   -1.0453   -0.9256 C   0  0  1  0  0  0  0  0  0  0  0  0
   -3.8179   -2.0511   -0.6493 H   0  0  0  0  0  0  0  0  0  0  0  0
   -4.5969   -0.0573   -0.8433 C   0  0  0  0  0  0  0  0  0  0  0  0
   -4.2126    0.9606   -1.0598 H   0  0  0  0  0  0  0  0  0  0  0  0
   -5.3430   -0.2952   -1.6301 H   0  0  0  0  0  0  0  0  0  0  0  0
   -5.2610   -0.0600    0.5365 C   0  0  0  0  0  0  0  0  0  0  0  0
   -6.0964    0.6719    0.5628 H   0  0  0  0  0  0  0  0  0  0  0  0
   -5.7154   -1.0590    0.7344 H   0  0  0  0  0  0  0  0  0  0  0  0
   -4.2550    0.2572    1.6523 C   0  0  2  0  0  0  0  0  0  0  0  0
   -3.8447    1.2727    1.4553 H   0  0  0  0  0  0  0  0  0  0  0  0
   -3.0725   -0.7161    1.5771 C   0  0  0  0  0  0  0  0  0  0  0  0
   -3.4252   -1.7479    1.8005 H   0  0  0  0  0  0  0  0  0  0  0  0
   -2.3074   -0.4581    2.3398 H   0  0  0  0  0  0  0  0  0  0  0  0
   -2.8116   -1.1832   -2.3489 C   0  0  0  0  0  0  0  0  0  0  0  0
   -1.8125   -1.6593   -2.2247 H   0  0  0  0  0  0  0  0  0  0  0  0
   -2.5922    0.1463   -3.0859 C   0  0  0  0  0  0  0  0  0  0  0  0
   -3.5582    0.6383   -3.3231 H   0  0  0  0  0  0  0  0  0  0  0  0
   -2.0781   -0.0383   -4.0520 H   0  0  0  0  0  0  0  0  0  0  0  0
   -1.9752    0.8543   -2.5016 H   0  0  0  0  0  0  0  0  0  0  0  0
   -3.6558   -2.1418   -3.2020 C   0  0  0  0  0  0  0  0  0  0  0  0
   -4.6863   -1.7529   -3.3443 H   0  0  0  0  0  0  0  0  0  0  0  0
   -3.7383   -3.1451   -2.7347 H   0  0  0  0  0  0  0  0  0  0  0  0
   -3.2141   -2.2726   -4.2110 H   0  0  0  0  0  0  0  0  0  0  0  0
   -4.8984    0.2498    3.0398 C   0  0  0  0  0  0  0  0  0  0  0  0
   -5.3101   -0.7531    3.2839 H   0  0  0  0  0  0  0  0  0  0  0  0
   -5.7342    0.9767    3.0997 H   0  0  0  0  0  0  0  0  0  0  0  0
   -4.1641    0.5114    3.8292 H   0  0  0  0  0  0  0  0  0  0  0  0
    2.3148   -0.7777   -0.0495 C   0  0  1  0  0  0  0  0  0  0  0  0
    1.7893    0.5214   -0.0297 O   0  0  0  0  0  1  0  0  0  0  0  0
    3.3650   -0.9705    1.0897 C   0  0  1  0  0  0  0  0  0  0  0  0
    3.7334   -2.0163    0.9724 H   0  0  0  0  0  0  0  0  0  0  0  0
    4.5573   -0.0350    0.8385 C   0  0  0  0  0  0  0  0  0  0  0  0
    5.3119   -0.1665    1.6418 H   0  0  0  0  0  0  0  0  0  0  0  0
    4.1991    1.0131    0.9014 H   0  0  0  0  0  0  0  0  0  0  0  0
    5.1977   -0.2642   -0.5337 C   0  0  0  0  0  0  0  0  0  0  0  0
    5.6318   -1.2902   -0.5808 H   0  0  0  0  0  0  0  0  0  0  0  0
    6.0448    0.4387   -0.6844 H   0  0  0  0  0  0  0  0  0  0  0  0
    4.1788   -0.1041   -1.6713 C   0  0  2  0  0  0  0  0  0  0  0  0
    3.7873    0.9363   -1.6283 H   0  0  0  0  0  0  0  0  0  0  0  0
    2.9844   -1.0348   -1.4286 C   0  0  0  0  0  0  0  0  0  0  0  0
    3.3194   -2.0947   -1.4870 H   0  0  0  0  0  0  0  0  0  0  0  0
    2.2123   -0.8921   -2.2146 H   0  0  0  0  0  0  0  0  0  0  0  0
    2.7705   -0.8659    2.5234 C   0  0  0  0  0  0  0  0  0  0  0  0
    1.7601   -1.3329    2.4870 H   0  0  0  0  0  0  0  0  0  0  0  0
    2.5887    0.5686    3.0412 C   0  0  0  0  0  0  0  0  0  0  0  0
    3.5682    1.0692    3.1888 H   0  0  0  0  0  0  0  0  0  0  0  0
    2.0827    0.5518    4.0286 H   0  0  0  0  0  0  0  0  0  0  0  0
    1.9796    1.1892    2.3578 H   0  0  0  0  0  0  0  0  0  0  0  0
    3.6065   -1.6952    3.5096 C   0  0  0  0  0  0  0  0  0  0  0  0
    4.6465   -1.3114    3.5780 H   0  0  0  0  0  0  0  0  0  0  0  0
    3.6625   -2.7616    3.2070 H   0  0  0  0  0  0  0  0  0  0  0  0
    3.1757   -1.6543    4.5308 H   0  0  0  0  0  0  0  0  0  0  0  0
    4.7987   -0.3366   -3.0500 C   0  0  0  0  0  0  0  0  0  0  0  0
    5.1894   -1.3726   -3.1437 H   0  0  0  0  0  0  0  0  0  0  0  0
    5.6451    0.3568   -3.2326 H   0  0  0  0  0  0  0  0  0  0  0  0
    4.0554   -0.1846   -3.8597 H   0  0  0  0  0  0  0  0  0  0  0  0
  1  9  1  0  0  0  0
  2  1  1  6  0  0  0
  2  3  1  0  0  0  0
  3  5  2  0  0  0  0
  4  3  1  0  0  0  0
  5  7  1  0  0  0  0
  5  6  1  0  0  0  0
  7  8  1  0  0  0  0
  9  7  2  0  0  0  0
 10 11  1  6  0  0  0
 10  9  1  0  0  0  0
 10 22  1  0  0  0  0
 12 14  1  0  0  0  0
 12 13  1  1  0  0  0
 12 10  1  0  0  0  0
 14 17  1  0  0  0  0
 15 14  1  0  0  0  0
 16 14  1  0  0  0  0
 17 18  1  0  0  0  0
 17 19  1  0  0  0  0
 17 20  1  0  0  0  0
 20 21  1  6  0  0  0
 20 35  1  0  0  0  0
 22 20  1  0  0  0  0
 22 23  1  0  0  0  0
 22 24  1  0  0  0  0
 25 26  1  0  0  0  0
 25 12  1  0  0  0  0
 27 30  1  0  0  0  0
 27 25  1  0  0  0  0
 28 27  1  0  0  0  0
 29 27  1  0  0  0  0
 31 33  1  0  0  0  0
 31 25  1  0  0  0  0
 32 31  1  0  0  0  0
 34 31  1  0  0  0  0
 35 37  1  0  0  0  0
 35 36  1  0  0  0  0
 35 38  1  0  0  0  0
 39 40  1  1  0  0  0
 39  2  1  0  0  0  0
 39 41  1  0  0  0  0
 41 42  1  6  0  0  0
 41 54  1  0  0  0  0
 43 45  1  0  0  0  0
 43 41  1  0  0  0  0
 43 44  1  0  0  0  0
 46 43  1  0  0  0  0
 47 46  1  0  0  0  0
 48 46  1  0  0  0  0
 49 50  1  1  0  0  0
 49 51  1  0  0  0  0
 49 46  1  0  0  0  0
 51 39  1  0  0  0  0
 52 51  1  0  0  0  0
 53 51  1  0  0  0  0
 54 56  1  0  0  0  0
 54 60  1  0  0  0  0
 55 54  1  0  0  0  0
 56 57  1  0  0  0  0
 56 58  1  0  0  0  0
 59 56  1  0  0  0  0
 60 61  1  0  0  0  0
 60 63  1  0  0  0  0
 62 60  1  0  0  0  0
 64 49  1  0  0  0  0
 65 64  1  0  0  0  0
 66 64  1  0  0  0  0
 67 64  1  0  0  0  0
M  END
