1,2,4
 OpenBabel05122313063D

 28 29  0  0  1  0  0  0  0  0999 V2000
    1.9062    0.9306   -0.7078 O   0  5  0  0  0  0  0  0  0  0  0  0
   -1.6033    0.6383   -0.2617 O   0  5  0  0  0  0  0  0  0  0  0  0
   -3.6804   -2.2911    0.0171 O   0  0  0  0  0  0  0  0  0  0  0  0
    0.2492   -0.9947   -0.0168 N   0  0  0  0  0  2  0  0  0  0  0  0
   -0.9819   -1.5692   -0.0200 N   0  0  0  0  0  0  0  0  0  0  0  0
    2.9057    0.1089   -0.3999 C   0  0  0  0  0  0  0  0  0  0  0  0
    4.2318    0.5779   -0.5418 C   0  0  0  0  0  0  0  0  0  0  0  0
    4.3728    1.6119   -0.8870 H   0  0  0  0  0  0  0  0  0  0  0  0
    5.3122   -0.2522   -0.2408 C   0  0  0  0  0  0  0  0  0  0  0  0
    6.3387    0.1305   -0.3465 H   0  0  0  0  0  0  0  0  0  0  0  0
    5.0903   -1.5722    0.2007 C   0  0  0  0  0  0  0  0  0  0  0  0
    5.9396   -2.2258    0.4468 H   0  0  0  0  0  0  0  0  0  0  0  0
    3.7862   -2.0498    0.3232 C   0  0  0  0  0  0  0  0  0  0  0  0
    3.6260   -3.0815    0.6644 H   0  0  0  0  0  0  0  0  0  0  0  0
    2.6587   -1.2349    0.0314 C   0  0  0  0  0  0  0  0  0  0  0  0
    1.3094   -1.7850    0.0975 C   0  0  2  0  0  3  0  0  0  0  0  0
    1.1212   -3.2653    0.2911 C   0  0  0  0  0  0  0  0  0  0  0  0
    1.4667   -3.5659    1.3023 H   0  0  0  0  0  0  0  0  0  0  0  0
    1.7171   -3.8392   -0.4452 H   0  0  0  0  0  0  0  0  0  0  0  0
    0.0521   -3.5163    0.1925 H   0  0  0  0  0  0  0  0  0  0  0  0
   -1.9053   -0.6316   -0.1261 C   0  0  0  0  0  0  0  0  0  0  0  0
   -3.3168   -0.9789   -0.1188 C   0  0  0  0  0  0  0  0  0  0  0  0
   -4.4463   -0.1831   -0.2263 C   0  0  0  0  0  0  0  0  0  0  0  0
   -4.4467    0.9049   -0.3446 H   0  0  0  0  0  0  0  0  0  0  0  0
   -5.5649   -1.0675   -0.1508 C   0  0  0  0  0  0  0  0  0  0  0  0
   -6.6275   -0.8060   -0.1988 H   0  0  0  0  0  0  0  0  0  0  0  0
   -5.0364   -2.3336   -0.0038 C   0  0  0  0  0  0  0  0  0  0  0  0
   -5.4831   -3.3283    0.0950 H   0  0  0  0  0  0  0  0  0  0  0  0
  1  6  1  0  0  0  0
  2 21  1  0  0  0  0
  5  4  1  0  0  0  0
  6 15  1  0  0  0  0
  7  6  2  0  0  0  0
  7  9  1  0  0  0  0
  8  7  1  0  0  0  0
  9 11  2  0  0  0  0
 10  9  1  0  0  0  0
 11 13  1  0  0  0  0
 11 12  1  0  0  0  0
 13 14  1  0  0  0  0
 15 16  1  0  0  0  0
 15 13  2  0  0  0  0
 16  4  1  6  0  0  0
 16 17  1  0  0  0  0
 17 18  1  0  0  0  0
 19 17  1  0  0  0  0
 20 17  1  0  0  0  0
 21 22  1  0  0  0  0
 21  5  2  0  0  0  0
 22  3  1  0  0  0  0
 23 25  1  0  0  0  0
 23 22  2  0  0  0  0
 24 23  1  0  0  0  0
 25 27  2  0  0  0  0
 26 25  1  0  0  0  0
 27  3  1  0  0  0  0
 27 28  1  0  0  0  0
M  CHG  2   1  -1   2  -1
M  END
