1,2,3
 OpenBabel05122313063D

 27 28  0  0  0  0  0  0  0  0999 V2000
   -0.7754   -1.1810   -0.4314 O   0  5  0  0  0  0  0  0  0  0  0  0
   -3.4172    1.2502   -0.1990 O   0  0  0  0  0  1  0  0  0  0  0  0
   -0.9335    1.4488   -0.3349 N   0  0  0  0  0  2  0  0  0  0  0  0
    1.1604    0.2211   -0.1644 C   0  0  0  0  0  0  0  0  0  0  0  0
    0.5179   -1.0456   -0.3240 C   0  0  0  0  0  0  0  0  0  0  0  0
    1.3248   -2.2307   -0.4200 C   0  0  0  0  0  0  0  0  0  0  0  0
    2.6937   -2.1639   -0.3007 C   0  0  0  0  0  0  0  0  0  0  0  0
    3.3735   -0.9215   -0.0846 C   0  0  0  0  0  0  0  0  0  0  0  0
    4.7865   -0.8738    0.0612 C   0  0  0  0  0  0  0  0  0  0  0  0
    5.4443    0.3298    0.2803 C   0  0  0  0  0  0  0  0  0  0  0  0
    4.6913    1.5246    0.3686 C   0  0  0  0  0  0  0  0  0  0  0  0
    3.3065    1.5046    0.2316 C   0  0  0  0  0  0  0  0  0  0  0  0
    2.6025    0.2916   -0.0099 C   0  0  0  0  0  0  0  0  0  0  0  0
    0.3716    1.4087   -0.3025 C   0  0  0  0  0  3  0  0  0  0  0  0
   -1.6307    2.6951   -0.6299 C   0  0  0  0  0  0  0  0  0  0  0  0
   -2.9939    2.5604    0.0523 C   0  0  0  0  0  0  0  0  0  0  0  0
    0.7992   -3.1835   -0.5762 H   0  0  0  0  0  0  0  0  0  0  0  0
    3.2959   -3.0844   -0.3608 H   0  0  0  0  0  0  0  0  0  0  0  0
    5.3521   -1.8168   -0.0007 H   0  0  0  0  0  0  0  0  0  0  0  0
    6.5382    0.3557    0.3927 H   0  0  0  0  0  0  0  0  0  0  0  0
    5.2028    2.4808    0.5568 H   0  0  0  0  0  0  0  0  0  0  0  0
    2.7547    2.4499    0.3348 H   0  0  0  0  0  0  0  0  0  0  0  0
    0.9153    2.3636   -0.4496 H   0  0  0  0  0  0  0  0  0  0  0  0
   -1.0556    3.5891   -0.3012 H   0  0  0  0  0  0  0  0  0  0  0  0
   -1.7827    2.7684   -1.7305 H   0  0  0  0  0  0  0  0  0  0  0  0
   -3.7274    3.2906   -0.3574 H   0  0  0  0  0  0  0  0  0  0  0  0
   -2.8954    2.7444    1.1503 H   0  0  0  0  0  0  0  0  0  0  0  0
  1  5  1  0  0  0  0
  2 16  1  0  0  0  0
  3 14  1  0  0  0  0
  4 13  1  0  0  0  0
  5  4  2  0  0  0  0
  6  5  1  0  0  0  0
  6  7  2  0  0  0  0
  7  8  1  0  0  0  0
  8 13  2  0  0  0  0
  8  9  1  0  0  0  0
  9 10  2  0  0  0  0
 10 11  1  0  0  0  0
 10 20  1  0  0  0  0
 11 21  1  0  0  0  0
 12 22  1  0  0  0  0
 12 11  2  0  0  0  0
 13 12  1  0  0  0  0
 14  4  1  0  0  0  0
 15  3  1  0  0  0  0
 15 24  1  0  0  0  0
 15 16  1  0  0  0  0
 16 27  1  0  0  0  0
 17  6  1  0  0  0  0
 18  7  1  0  0  0  0
 19  9  1  0  0  0  0
 23 14  1  0  0  0  0
 25 15  1  0  0  0  0
 26 16  1  0  0  0  0
M  CHG  1   1  -1
M  END
