1,2,3
 OpenBabel05122313063D

 35 36  0  0  1  0  0  0  0  0999 V2000
    1.7585   -0.2763   -1.9098 O   0  5  0  0  0  0  0  0  0  0  0  0
   -1.7165    0.1964   -0.4030 O   0  5  0  0  0  0  0  0  0  0  0  0
    0.5559   -1.3120    0.1657 N   0  0  0  0  0  2  0  0  0  0  0  0
    2.5521   -0.8483   -0.9968 C   0  0  0  0  0  0  0  0  0  0  0  0
    3.9496   -0.8796   -1.1529 C   0  0  0  0  0  0  0  0  0  0  0  0
    4.3831   -0.4739   -2.0781 H   0  0  0  0  0  0  0  0  0  0  0  0
    4.7529   -1.3836   -0.1236 C   0  0  0  0  0  0  0  0  0  0  0  0
    5.8475   -1.3864   -0.2474 H   0  0  0  0  0  0  0  0  0  0  0  0
    4.1925   -1.8576    1.0838 C   0  0  0  0  0  0  0  0  0  0  0  0
    2.7926   -1.8524    1.2201 C   0  0  0  0  0  0  0  0  0  0  0  0
    2.3569   -2.1838    2.1712 H   0  0  0  0  0  0  0  0  0  0  0  0
    1.9525   -1.3939    0.1797 C   0  0  0  0  0  0  0  0  0  0  0  0
    5.0777   -2.3714    2.1932 C   0  0  0  0  0  0  0  0  0  0  0  0
    5.5255   -3.3546    1.9324 H   0  0  0  0  0  0  0  0  0  0  0  0
    4.5141   -2.5058    3.1372 H   0  0  0  0  0  0  0  0  0  0  0  0
    5.9214   -1.6802    2.3962 H   0  0  0  0  0  0  0  0  0  0  0  0
   -0.2874   -2.0889    0.8403 C   0  0  2  0  0  3  0  0  0  0  0  0
    0.1579   -3.3325    1.5766 C   0  0  0  0  0  0  0  0  0  0  0  0
    1.0432   -3.7895    1.0955 H   0  0  0  0  0  0  0  0  0  0  0  0
   -0.6679   -4.0687    1.5925 H   0  0  0  0  0  0  0  0  0  0  0  0
    0.4228   -3.1164    2.6327 H   0  0  0  0  0  0  0  0  0  0  0  0
   -1.6901   -1.8013    0.8923 C   0  0  0  0  0  0  0  0  0  0  0  0
   -2.3064   -2.5127    1.4549 H   0  0  0  0  0  0  0  0  0  0  0  0
   -2.3298   -0.6849    0.3597 C   0  0  0  0  0  0  0  0  0  0  0  0
   -3.7620   -0.3886    0.6120 C   0  0  0  0  0  0  0  0  0  0  0  0
   -4.4940   -0.9990    1.6569 C   0  0  0  0  0  0  0  0  0  0  0  0
   -3.9970   -1.7043    2.3386 H   0  0  0  0  0  0  0  0  0  0  0  0
   -5.8455   -0.6929    1.8523 C   0  0  0  0  0  0  0  0  0  0  0  0
   -6.4001   -1.1732    2.6725 H   0  0  0  0  0  0  0  0  0  0  0  0
   -6.4905    0.2309    1.0121 C   0  0  0  0  0  0  0  0  0  0  0  0
   -7.5536    0.4696    1.1677 H   0  0  0  0  0  0  0  0  0  0  0  0
   -5.7711    0.8502   -0.0227 C   0  0  0  0  0  0  0  0  0  0  0  0
   -6.2699    1.5744   -0.6846 H   0  0  0  0  0  0  0  0  0  0  0  0
   -4.4187    0.5472   -0.2205 C   0  0  0  0  0  0  0  0  0  0  0  0
   -3.8462    1.0213   -1.0299 H   0  0  0  0  0  0  0  0  0  0  0  0
  1  4  1  0  0  0  0
  2 24  1  0  0  0  0
  3 12  1  0  0  0  0
  4 12  1  0  0  0  0
  5  4  2  0  0  0  0
  5  7  1  0  0  0  0
  6  5  1  0  0  0  0
  7  9  2  0  0  0  0
  8  7  1  0  0  0  0
  9 10  1  0  0  0  0
  9 13  1  0  0  0  0
 10 11  1  0  0  0  0
 12 10  2  0  0  0  0
 13 16  1  0  0  0  0
 13 15  1  0  0  0  0
 14 13  1  0  0  0  0
 17  3  1  6  0  0  0
 17 22  1  0  0  0  0
 17 18  1  0  0  0  0
 18 20  1  0  0  0  0
 18 21  1  0  0  0  0
 19 18  1  0  0  0  0
 22 23  1  0  0  0  0
 24 25  1  0  0  0  0
 24 22  2  0  0  0  0
 25 26  1  0  0  0  0
 26 28  2  0  0  0  0
 26 27  1  0  0  0  0
 28 29  1  0  0  0  0
 30 31  1  0  0  0  0
 30 28  1  0  0  0  0
 32 30  2  0  0  0  0
 33 32  1  0  0  0  0
 34 32  1  0  0  0  0
 34 25  2  0  0  0  0
 35 34  1  0  0  0  0
M  CHG  2   1  -1   2  -1
M  END
