24,26,27
 OpenBabel05122313063D

 29 30  0  0  1  0  0  0  0  0999 V2000
   -2.5940    1.6288   -0.0521 C   0  0  0  0  0  0  0  0  0  0  0  0
   -4.0689    1.5335   -0.0651 C   0  0  0  0  0  0  0  0  0  0  0  0
   -4.6921    0.2882   -0.2959 C   0  0  0  0  0  0  0  0  0  0  0  0
   -4.0609   -0.5940   -0.4721 H   0  0  0  0  0  0  0  0  0  0  0  0
   -6.0898    0.1918   -0.3098 C   0  0  0  0  0  0  0  0  0  0  0  0
   -6.5680   -0.7825   -0.4945 H   0  0  0  0  0  0  0  0  0  0  0  0
   -6.8795    1.3333   -0.0946 C   0  0  0  0  0  0  0  0  0  0  0  0
   -7.9775    1.2558   -0.1050 H   0  0  0  0  0  0  0  0  0  0  0  0
   -6.2628    2.5768    0.1304 C   0  0  0  0  0  0  0  0  0  0  0  0
   -6.8783    3.4741    0.2969 H   0  0  0  0  0  0  0  0  0  0  0  0
   -4.8670    2.6803    0.1435 C   0  0  0  0  0  0  0  0  0  0  0  0
   -4.3656    3.6432    0.3155 H   0  0  0  0  0  0  0  0  0  0  0  0
    0.1264    3.6993    0.0530 C   0  0  0  0  0  0  0  0  0  0  0  0
   -0.3885    4.6739    0.1292 H   0  0  0  0  0  0  0  0  0  0  0  0
    1.5565    3.6583    0.0200 C   0  0  0  0  0  0  0  0  0  0  0  0
    2.2552    2.4205   -0.1001 C   0  0  1  0  0  3  0  0  0  0  0  0
    3.6872    2.4204   -0.1493 C   0  0  0  0  0  0  0  0  0  0  0  0
    4.3969    3.6171   -0.0674 C   0  0  0  0  0  0  0  0  0  0  0  0
    5.4955    3.5839   -0.1056 H   0  0  0  0  0  0  0  0  0  0  0  0
    3.7000    4.8441    0.0601 C   0  0  0  0  0  0  0  0  0  0  0  0
    4.2696    5.7828    0.1240 H   0  0  0  0  0  0  0  0  0  0  0  0
    2.3115    4.8693    0.0991 C   0  0  0  0  0  0  0  0  0  0  0  0
    1.7695    5.8225    0.1923 H   0  0  0  0  0  0  0  0  0  0  0  0
   -0.6509    2.6353   -0.0055 N   0  0  0  0  0  2  0  0  0  0  0  0
   -2.0067    2.8106    0.0088 N   0  0  0  0  0  0  0  0  0  0  0  0
   -1.9037    0.5074   -0.1138 O   0  5  0  0  0  0  0  0  0  0  0  0
    1.7068    1.2168   -0.1744 O   0  0  0  0  0  1  0  0  0  0  0  0
    4.3029    1.2173   -0.2739 O   0  0  0  0  0  0  0  0  0  0  0  0
    3.5621    0.5748   -0.3866 H   0  0  0  0  0  0  0  0  0  0  0  0
  1 25  2  0  0  0  0
  2  1  1  0  0  0  0
  2 11  1  0  0  0  0
  3  2  2  0  0  0  0
  4  3  1  0  0  0  0
  5  3  1  0  0  0  0
  5  7  2  0  0  0  0
  6  5  1  0  0  0  0
  7  9  1  0  0  0  0
  8  7  1  0  0  0  0
  9 11  2  0  0  0  0
  9 10  1  0  0  0  0
 11 12  1  0  0  0  0
 13 14  1  0  0  0  0
 15 13  2  0  0  0  0
 15 22  1  0  0  0  0
 16 27  1  1  0  0  0
 16 15  1  0  0  0  0
 17 16  1  0  0  0  0
 17 18  2  0  0  0  0
 18 20  1  0  0  0  0
 19 18  1  0  0  0  0
 20 22  2  0  0  0  0
 20 21  1  0  0  0  0
 22 23  1  0  0  0  0
 24 25  1  0  0  0  0
 24 13  1  0  0  0  0
 26  1  1  0  0  0  0
 28 17  1  0  0  0  0
 29 28  1  0  0  0  0
M  CHG  1  26  -1
M  END
