1,2,3
 OpenBabel05122313063D

 39 40  0  0  0  0  0  0  0  0999 V2000
   -0.3298    0.4688   -0.0996 O   0  5  0  0  0  0  0  0  0  0  0  0
    3.2491   -0.4261    0.0750 O   0  5  0  0  0  0  0  0  0  0  0  0
    1.1393   -1.8586   -0.0583 N   0  0  0  0  0  2  0  0  0  0  0  0
   -1.2939   -1.7502   -0.2133 C   0  0  0  0  0  0  0  0  0  0  0  0
   -0.0498   -2.4304   -0.1540 C   0  0  0  0  0  0  0  0  0  0  0  0
   -0.0877   -3.5347   -0.1872 H   0  0  0  0  0  0  0  0  0  0  0  0
    2.3455   -2.5931    0.0210 C   0  0  0  0  0  0  0  0  0  0  0  0
   -5.0947    0.1728   -0.3875 N   0  0  0  0  0  0  0  0  0  0  0  0
   -3.8569   -0.4473   -0.3129 C   0  0  0  0  0  0  0  0  0  0  0  0
    3.4769   -1.7308    0.0885 C   0  0  0  0  0  0  0  0  0  0  0  0
   -2.6613    0.2983   -0.2165 C   0  0  0  0  0  0  0  0  0  0  0  0
   -2.6670    1.3932   -0.1598 H   0  0  0  0  0  0  0  0  0  0  0  0
   -1.3811   -0.3096   -0.1751 C   0  0  0  0  0  0  0  0  0  0  0  0
    4.7718   -2.2959    0.1686 C   0  0  0  0  0  0  0  0  0  0  0  0
    5.6403   -1.6228    0.2175 H   0  0  0  0  0  0  0  0  0  0  0  0
   -3.7499   -1.8809   -0.3495 C   0  0  0  0  0  0  0  0  0  0  0  0
   -4.6453   -2.5098   -0.4124 H   0  0  0  0  0  0  0  0  0  0  0  0
   -2.5085   -2.4878   -0.3029 C   0  0  0  0  0  3  0  0  0  0  0  0
   -2.4483   -3.5877   -0.3316 H   0  0  0  0  0  0  0  0  0  0  0  0
    2.5044   -3.9916    0.0382 C   0  0  0  0  0  0  0  0  0  0  0  0
    1.6330   -4.6612   -0.0083 H   0  0  0  0  0  0  0  0  0  0  0  0
    4.9181   -3.6878    0.1829 C   0  0  0  0  0  0  0  0  0  0  0  0
    5.9268   -4.1247    0.2461 H   0  0  0  0  0  0  0  0  0  0  0  0
   -6.3291   -0.6032   -0.4020 C   0  0  0  0  0  0  0  0  0  0  0  0
   -6.2148   -1.4538   -1.1069 H   0  0  0  0  0  0  0  0  0  0  0  0
   -7.1161    0.0434   -0.8423 H   0  0  0  0  0  0  0  0  0  0  0  0
    3.7933   -4.5368    0.1187 C   0  0  0  0  0  0  0  0  0  0  0  0
    3.9236   -5.6289    0.1324 H   0  0  0  0  0  0  0  0  0  0  0  0
   -6.7893   -1.1177    0.9674 C   0  0  0  0  0  0  0  0  0  0  0  0
   -7.7120   -1.7248    0.8650 H   0  0  0  0  0  0  0  0  0  0  0  0
   -6.0111   -1.7520    1.4364 H   0  0  0  0  0  0  0  0  0  0  0  0
   -7.0063   -0.2820    1.6617 H   0  0  0  0  0  0  0  0  0  0  0  0
   -5.2048    1.6229   -0.2917 C   0  0  0  0  0  0  0  0  0  0  0  0
   -6.1702    1.9117   -0.7564 H   0  0  0  0  0  0  0  0  0  0  0  0
   -4.4156    2.0823   -0.9246 H   0  0  0  0  0  0  0  0  0  0  0  0
   -5.1253    2.1873    1.1322 C   0  0  0  0  0  0  0  0  0  0  0  0
   -5.1659    3.2956    1.1136 H   0  0  0  0  0  0  0  0  0  0  0  0
   -5.9658    1.8265    1.7576 H   0  0  0  0  0  0  0  0  0  0  0  0
   -4.1811    1.8867    1.6278 H   0  0  0  0  0  0  0  0  0  0  0  0
  2 10  1  0  0  0  0
  3  7  1  0  0  0  0
  4 13  1  0  0  0  0
  4  5  2  0  0  0  0
  5  3  1  0  0  0  0
  6  5  1  0  0  0  0
  7 20  2  0  0  0  0
  7 10  1  0  0  0  0
  8  9  1  0  0  0  0
  8 33  1  0  0  0  0
  9 11  1  0  0  0  0
 10 14  2  0  0  0  0
 11 13  2  0  0  0  0
 11 12  1  0  0  0  0
 13  1  1  0  0  0  0
 14 22  1  0  0  0  0
 14 15  1  0  0  0  0
 16  9  2  0  0  0  0
 16 18  1  0  0  0  0
 17 16  1  0  0  0  0
 18  4  1  0  0  0  0
 19 18  1  0  0  0  0
 20 27  1  0  0  0  0
 21 20  1  0  0  0  0
 22 23  1  0  0  0  0
 24  8  1  0  0  0  0
 24 29  1  0  0  0  0
 25 24  1  0  0  0  0
 26 24  1  0  0  0  0
 27 28  1  0  0  0  0
 27 22  2  0  0  0  0
 29 31  1  0  0  0  0
 29 32  1  0  0  0  0
 30 29  1  0  0  0  0
 33 36  1  0  0  0  0
 34 33  1  0  0  0  0
 35 33  1  0  0  0  0
 36 39  1  0  0  0  0
 36 38  1  0  0  0  0
 37 36  1  0  0  0  0
M  CHG  2   1  -1   2  -1
M  END
