29,32,33
 OpenBabel05122313063D

 33 35  0  0  1  0  0  0  0  0999 V2000
    2.7505    1.6334   -0.0179 C   0  0  0  0  0  0  0  0  0  0  0  0
    3.3048    2.5853   -0.0284 H   0  0  0  0  0  0  0  0  0  0  0  0
    3.4702    0.3959   -0.0074 C   0  0  0  0  0  0  0  0  0  0  0  0
    2.8205   -0.8886    0.0138 C   0  0  0  0  0  0  0  0  0  0  0  0
    3.6302   -2.0788    0.0381 C   0  0  0  0  0  0  0  0  0  0  0  0
    3.0887   -3.0354    0.0657 H   0  0  0  0  0  0  0  0  0  0  0  0
    5.0013   -2.0242    0.0332 C   0  0  0  0  0  0  0  0  0  0  0  0
    5.5917   -2.9538    0.0527 H   0  0  0  0  0  0  0  0  0  0  0  0
    5.6955   -0.7729    0.0048 C   0  0  0  0  0  0  0  0  0  0  0  0
    4.9341    0.4484   -0.0150 C   0  0  1  0  0  3  0  0  0  0  0  0
    7.1161   -0.7340   -0.0024 C   0  0  0  0  0  0  0  0  0  0  0  0
    7.6634   -1.6897    0.0137 H   0  0  0  0  0  0  0  0  0  0  0  0
    7.8034    0.4723   -0.0293 C   0  0  0  0  0  0  0  0  0  0  0  0
    8.9033    0.4912   -0.0349 H   0  0  0  0  0  0  0  0  0  0  0  0
    7.0669    1.6787   -0.0497 C   0  0  0  0  0  0  0  0  0  0  0  0
    7.5952    2.6440   -0.0719 H   0  0  0  0  0  0  0  0  0  0  0  0
    5.6750    1.6647   -0.0426 C   0  0  0  0  0  0  0  0  0  0  0  0
    5.1549    2.6316   -0.0605 H   0  0  0  0  0  0  0  0  0  0  0  0
   -0.4198    2.9868    0.0016 C   0  0  0  0  0  0  0  0  0  0  0  0
   -1.1841    4.2562    0.0115 C   0  0  0  0  0  0  0  0  0  0  0  0
   -0.5436    5.5102   -0.0607 C   0  0  0  0  0  0  0  0  0  0  0  0
    0.5524    5.5588   -0.1242 H   0  0  0  0  0  0  0  0  0  0  0  0
   -1.3331    6.6676   -0.0505 C   0  0  0  0  0  0  0  0  0  0  0  0
   -0.8513    7.6605   -0.1082 H   0  0  0  0  0  0  0  0  0  0  0  0
   -3.2772    5.4627    0.0980 C   0  0  0  0  0  0  0  0  0  0  0  0
   -4.3806    5.4721    0.1642 H   0  0  0  0  0  0  0  0  0  0  0  0
   -2.5910    4.2396    0.0942 C   0  0  0  0  0  0  0  0  0  0  0  0
   -3.1242    3.2804    0.1591 H   0  0  0  0  0  0  0  0  0  0  0  0
    1.4413    1.7833   -0.0113 N   0  0  0  0  0  2  0  0  0  0  0  0
    0.9015    3.0354   -0.0127 N   0  0  0  0  0  0  0  0  0  0  0  0
   -2.6761    6.6618    0.0262 N   0  0  0  0  0  0  0  0  0  0  0  0
    1.5278   -1.1227    0.0156 O   0  5  0  0  0  0  0  0  0  0  0  0
   -1.1219    1.8732    0.0114 O   0  5  0  0  0  0  0  0  0  0  0  0
  1 29  1  0  0  0  0
  1  3  2  0  0  0  0
  2  1  1  0  0  0  0
  3  4  1  0  0  0  0
  4 32  1  0  0  0  0
  4  5  2  0  0  0  0
  5  6  1  0  0  0  0
  7  5  1  0  0  0  0
  7  8  1  0  0  0  0
  9  7  2  0  0  0  0
 10 17  1  6  0  0  0
 10  3  1  0  0  0  0
 10  9  1  0  0  0  0
 11  9  1  0  0  0  0
 11 12  1  0  0  0  0
 13 11  2  0  0  0  0
 14 13  1  0  0  0  0
 15 17  2  0  0  0  0
 15 13  1  0  0  0  0
 16 15  1  0  0  0  0
 18 17  1  0  0  0  0
 19 33  1  0  0  0  0
 19 20  1  0  0  0  0
 20 27  1  0  0  0  0
 21 23  1  0  0  0  0
 21 20  2  0  0  0  0
 22 21  1  0  0  0  0
 23 31  2  0  0  0  0
 24 23  1  0  0  0  0
 25 26  1  0  0  0  0
 27 25  2  0  0  0  0
 27 28  1  0  0  0  0
 30 29  1  0  0  0  0
 30 19  2  0  0  0  0
 31 25  1  0  0  0  0
M  CHG  2  32  -1  33  -1
M  END
