2,3,8
 OpenBabel05122313063D

 30 31  0  0  0  0  0  0  0  0999 V2000
    6.4642   -2.7224    0.7958 Cl  0  0  0  0  0  0  0  0  0  0  0  0
    2.2336    1.1714   -0.5327 O   0  5  0  0  0  0  0  0  0  0  0  0
   -1.5215    0.5646   -0.9719 O   0  5  0  0  0  0  0  0  0  0  0  0
   -2.5649   -3.1206    0.7757 O   0  0  0  0  0  0  0  0  0  0  0  0
   -1.6638   -2.6757    0.5842 H   0  0  0  0  0  0  0  0  0  0  0  0
   -7.1865   -2.0998    0.1380 O   0  0  0  0  0  0  0  0  0  0  0  0
   -7.2575   -2.9801    0.5531 H   0  0  0  0  0  0  0  0  0  0  0  0
    0.4116   -0.8708   -0.1848 N   0  0  0  0  0  2  0  0  0  0  0  0
   -0.8185   -1.4100    0.0015 N   0  0  0  0  0  0  0  0  0  0  0  0
    2.8206   -1.0925    0.1035 C   0  0  0  0  0  0  0  0  0  0  0  0
    3.1570    0.2535   -0.2513 C   0  0  0  0  0  0  0  0  0  0  0  0
    4.5152    0.6406   -0.2718 C   0  0  0  0  0  0  0  0  0  0  0  0
    4.7489    1.6793   -0.5447 H   0  0  0  0  0  0  0  0  0  0  0  0
    5.5296   -0.2660    0.0431 C   0  0  0  0  0  0  0  0  0  0  0  0
    6.5842    0.0426    0.0202 H   0  0  0  0  0  0  0  0  0  0  0  0
    5.1977   -1.5891    0.3970 C   0  0  0  0  0  0  0  0  0  0  0  0
    3.8634   -1.9955    0.4315 C   0  0  0  0  0  0  0  0  0  0  0  0
    3.6153   -3.0295    0.7116 H   0  0  0  0  0  0  0  0  0  0  0  0
    1.4581   -1.5652    0.1822 C   0  0  0  0  0  3  0  0  0  0  0  0
    1.2830   -2.5804    0.5865 H   0  0  0  0  0  0  0  0  0  0  0  0
   -1.7892   -0.6012   -0.4331 C   0  0  0  0  0  0  0  0  0  0  0  0
   -3.1733   -1.0168   -0.2774 C   0  0  0  0  0  0  0  0  0  0  0  0
   -3.4979   -2.2783    0.3316 C   0  0  0  0  0  0  0  0  0  0  0  0
   -4.8548   -2.6377    0.4702 C   0  0  0  0  0  0  0  0  0  0  0  0
   -5.0862   -3.6075    0.9375 H   0  0  0  0  0  0  0  0  0  0  0  0
   -5.8726   -1.7834    0.0213 C   0  0  0  0  0  0  0  0  0  0  0  0
   -5.5581   -0.5373   -0.5789 C   0  0  0  0  0  0  0  0  0  0  0  0
   -6.3764    0.1089   -0.9240 H   0  0  0  0  0  0  0  0  0  0  0  0
   -4.2252   -0.1758   -0.7197 C   0  0  0  0  0  0  0  0  0  0  0  0
   -3.9498    0.7811   -1.1862 H   0  0  0  0  0  0  0  0  0  0  0  0
  2 11  1  0  0  0  0
  3 21  1  0  0  0  0
  5  4  1  0  0  0  0
  6  7  1  0  0  0  0
  8  9  1  0  0  0  0
  8 19  1  0  0  0  0
 10 19  1  0  0  0  0
 10 17  1  0  0  0  0
 11 10  2  0  0  0  0
 12 11  1  0  0  0  0
 12 14  2  0  0  0  0
 13 12  1  0  0  0  0
 14 16  1  0  0  0  0
 15 14  1  0  0  0  0
 16 17  2  0  0  0  0
 16  1  1  0  0  0  0
 17 18  1  0  0  0  0
 19 20  1  0  0  0  0
 21 22  1  0  0  0  0
 21  9  2  0  0  0  0
 22 23  1  0  0  0  0
 23 24  2  0  0  0  0
 23  4  1  0  0  0  0
 24 25  1  0  0  0  0
 26  6  1  0  0  0  0
 26 24  1  0  0  0  0
 27 26  2  0  0  0  0
 28 27  1  0  0  0  0
 29 27  1  0  0  0  0
 29 22  2  0  0  0  0
 30 29  1  0  0  0  0
M  CHG  2   2  -1   3  -1
M  END
