1,2,4
 OpenBabel05122313063D

 38 39  0  0  1  0  0  0  0  0999 V2000
    0.2545   -1.6603   -0.8367 O   0  5  0  0  0  0  0  0  0  0  0  0
   -2.7457   -0.3209    0.7998 O   0  5  0  0  0  0  0  0  0  0  0  0
   -3.5283    1.4704    1.9088 O   0  0  0  0  0  0  0  0  0  0  0  0
   -0.5863    0.7126    0.0714 N   0  0  0  0  0  2  0  0  0  0  0  0
    0.6909    0.9351    0.2259 C   0  0  0  0  0  3  0  0  0  0  0  0
    0.9708    1.9067    0.6749 H   0  0  0  0  0  0  0  0  0  0  0  0
    1.7700    0.0566   -0.1259 C   0  0  0  0  0  0  0  0  0  0  0  0
    3.1531    0.4639    0.0548 C   0  0  0  0  0  0  0  0  0  0  0  0
    3.5426    1.7250    0.5897 C   0  0  0  0  0  0  0  0  0  0  0  0
    2.7819    2.4577    0.8922 H   0  0  0  0  0  0  0  0  0  0  0  0
    4.8820    2.0664    0.7450 C   0  0  0  0  0  0  0  0  0  0  0  0
    5.1431    3.0503    1.1634 H   0  0  0  0  0  0  0  0  0  0  0  0
    5.9082    1.1663    0.3711 C   0  0  0  0  0  0  0  0  0  0  0  0
    6.9642    1.4470    0.4979 H   0  0  0  0  0  0  0  0  0  0  0  0
    5.5659   -0.0704   -0.1578 C   0  0  0  0  0  0  0  0  0  0  0  0
    6.3470   -0.7861   -0.4585 H   0  0  0  0  0  0  0  0  0  0  0  0
    4.2045   -0.4451   -0.3270 C   0  0  0  0  0  0  0  0  0  0  0  0
    3.8583   -1.7189   -0.8785 C   0  0  0  0  0  0  0  0  0  0  0  0
    4.6724   -2.4022   -1.1678 H   0  0  0  0  0  0  0  0  0  0  0  0
    2.5468   -2.1012   -1.0516 C   0  0  0  0  0  0  0  0  0  0  0  0
    2.2734   -3.0783   -1.4741 H   0  0  0  0  0  0  0  0  0  0  0  0
    1.4781   -1.2265   -0.6690 C   0  0  0  0  0  0  0  0  0  0  0  0
   -2.7088    0.9561    1.1682 C   0  0  0  0  0  0  0  0  0  0  0  0
   -1.5245    1.7200    0.5486 C   0  0  2  0  0  0  0  0  0  0  0  0
   -1.0482    2.3161    1.3583 H   0  0  0  0  0  0  0  0  0  0  0  0
   -2.0104    2.7641   -0.5357 C   0  0  0  0  0  0  0  0  0  0  0  0
   -0.8070    3.2350   -1.3681 C   0  0  0  0  0  0  0  0  0  0  0  0
   -0.0003    3.6547   -0.7308 H   0  0  0  0  0  0  0  0  0  0  0  0
   -1.1283    4.0382   -2.0617 H   0  0  0  0  0  0  0  0  0  0  0  0
   -0.3774    2.4151   -1.9767 H   0  0  0  0  0  0  0  0  0  0  0  0
   -2.6034    3.9613    0.2319 C   0  0  0  0  0  0  0  0  0  0  0  0
   -1.8272    4.4708    0.8406 H   0  0  0  0  0  0  0  0  0  0  0  0
   -3.4108    3.6332    0.9140 H   0  0  0  0  0  0  0  0  0  0  0  0
   -3.0164    4.7021   -0.4824 H   0  0  0  0  0  0  0  0  0  0  0  0
   -3.0813    2.1730   -1.4689 C   0  0  0  0  0  0  0  0  0  0  0  0
   -2.7111    1.2876   -2.0182 H   0  0  0  0  0  0  0  0  0  0  0  0
   -3.3890    2.9371   -2.2116 H   0  0  0  0  0  0  0  0  0  0  0  0
   -3.9876    1.8748   -0.9047 H   0  0  0  0  0  0  0  0  0  0  0  0
  1 22  1  0  0  0  0
  2 23  1  0  0  0  0
  4  5  1  0  0  0  0
  4 24  1  0  0  0  0
  5  6  1  0  0  0  0
  7  8  1  0  0  0  0
  7  5  1  0  0  0  0
  8  9  1  0  0  0  0
  9 11  2  0  0  0  0
  9 10  1  0  0  0  0
 11 12  1  0  0  0  0
 13 14  1  0  0  0  0
 13 11  1  0  0  0  0
 15 13  2  0  0  0  0
 16 15  1  0  0  0  0
 17 15  1  0  0  0  0
 17  8  2  0  0  0  0
 18 17  1  0  0  0  0
 19 18  1  0  0  0  0
 20 18  2  0  0  0  0
 20 22  1  0  0  0  0
 21 20  1  0  0  0  0
 22  7  2  0  0  0  0
 23  3  2  0  0  0  0
 24 23  1  0  0  0  0
 24 25  1  1  0  0  0
 26 31  1  0  0  0  0
 26 24  1  0  0  0  0
 27 28  1  0  0  0  0
 27 26  1  0  0  0  0
 29 27  1  0  0  0  0
 30 27  1  0  0  0  0
 31 32  1  0  0  0  0
 31 33  1  0  0  0  0
 34 31  1  0  0  0  0
 35 38  1  0  0  0  0
 35 26  1  0  0  0  0
 36 35  1  0  0  0  0
 37 35  1  0  0  0  0
M  CHG  2   1  -1   2  -1
M  END
