1,2,4
 OpenBabel05122313063D

 38 39  0  0  1  0  0  0  0  0999 V2000
    0.4382   -1.9068   -0.3185 O   0  5  0  0  0  0  0  0  0  0  0  0
   -2.8670   -0.4503    0.2947 O   0  5  0  0  0  0  0  0  0  0  0  0
   -3.8414    1.2624    1.3756 O   0  0  0  0  0  0  0  0  0  0  0  0
   -0.5360    0.5154    0.2356 N   0  0  0  0  0  2  0  0  0  0  0  0
    0.7248    0.8325    0.3427 C   0  0  0  0  0  3  0  0  0  0  0  0
    0.9552    1.8396    0.7429 H   0  0  0  0  0  0  0  0  0  0  0  0
    1.8502    0.0018    0.0191 C   0  0  0  0  0  0  0  0  0  0  0  0
    3.2040    0.5269    0.0568 C   0  0  0  0  0  0  0  0  0  0  0  0
    3.5114    1.8963    0.2969 C   0  0  0  0  0  0  0  0  0  0  0  0
    2.7040    2.6256    0.4513 H   0  0  0  0  0  0  0  0  0  0  0  0
    4.8258    2.3508    0.3260 C   0  0  0  0  0  0  0  0  0  0  0  0
    5.0248    3.4168    0.5143 H   0  0  0  0  0  0  0  0  0  0  0  0
    5.9054    1.4615    0.1092 C   0  0  0  0  0  0  0  0  0  0  0  0
    6.9408    1.8320    0.1328 H   0  0  0  0  0  0  0  0  0  0  0  0
    5.6417    0.1217   -0.1406 C   0  0  0  0  0  0  0  0  0  0  0  0
    6.4655   -0.5866   -0.3207 H   0  0  0  0  0  0  0  0  0  0  0  0
    4.3077   -0.3698   -0.1745 C   0  0  0  0  0  0  0  0  0  0  0  0
    4.0391   -1.7494   -0.4433 C   0  0  0  0  0  0  0  0  0  0  0  0
    4.8924   -2.4238   -0.6174 H   0  0  0  0  0  0  0  0  0  0  0  0
    2.7540   -2.2408   -0.4952 C   0  0  0  0  0  0  0  0  0  0  0  0
    2.5412   -3.2981   -0.7070 H   0  0  0  0  0  0  0  0  0  0  0  0
    1.6336   -1.3743   -0.2752 C   0  0  0  0  0  0  0  0  0  0  0  0
   -1.5292    1.4945    0.6742 C   0  0  2  0  0  0  0  0  0  0  0  0
   -1.2512    1.8942    1.6744 H   0  0  0  0  0  0  0  0  0  0  0  0
   -2.8712    0.7641    0.8319 C   0  0  0  0  0  0  0  0  0  0  0  0
   -1.6532    2.7053   -0.3008 C   0  0  1  0  0  0  0  0  0  0  0  0
   -0.6035    3.0421   -0.4750 H   0  0  0  0  0  0  0  0  0  0  0  0
   -2.2514    2.2968   -1.6512 C   0  0  0  0  0  0  0  0  0  0  0  0
   -2.1917    3.1295   -2.3784 H   0  0  0  0  0  0  0  0  0  0  0  0
   -3.3211    2.0217   -1.5417 H   0  0  0  0  0  0  0  0  0  0  0  0
   -1.7232    1.4271   -2.0865 H   0  0  0  0  0  0  0  0  0  0  0  0
   -2.4031    3.8668    0.3772 C   0  0  0  0  0  0  0  0  0  0  0  0
   -3.4262    3.5248    0.6380 H   0  0  0  0  0  0  0  0  0  0  0  0
   -1.9062    4.0820    1.3492 H   0  0  0  0  0  0  0  0  0  0  0  0
   -2.4581    5.1477   -0.4558 C   0  0  0  0  0  0  0  0  0  0  0  0
   -2.9300    5.9711    0.1168 H   0  0  0  0  0  0  0  0  0  0  0  0
   -3.0491    5.0157   -1.3842 H   0  0  0  0  0  0  0  0  0  0  0  0
   -1.4428    5.4869   -0.7532 H   0  0  0  0  0  0  0  0  0  0  0  0
  1 22  1  0  0  0  0
  2 25  1  0  0  0  0
  4  5  1  0  0  0  0
  4 23  1  0  0  0  0
  5  6  1  0  0  0  0
  7  8  1  0  0  0  0
  7  5  1  0  0  0  0
  8  9  1  0  0  0  0
  9 11  2  0  0  0  0
  9 10  1  0  0  0  0
 11 12  1  0  0  0  0
 13 14  1  0  0  0  0
 13 11  1  0  0  0  0
 15 13  2  0  0  0  0
 16 15  1  0  0  0  0
 17 15  1  0  0  0  0
 17  8  2  0  0  0  0
 18 17  1  0  0  0  0
 19 18  1  0  0  0  0
 20 18  2  0  0  0  0
 20 22  1  0  0  0  0
 21 20  1  0  0  0  0
 22  7  2  0  0  0  0
 23 25  1  0  0  0  0
 23 24  1  1  0  0  0
 25  3  2  0  0  0  0
 26 27  1  6  0  0  0
 26 32  1  0  0  0  0
 26 23  1  0  0  0  0
 28 30  1  0  0  0  0
 28 26  1  0  0  0  0
 29 28  1  0  0  0  0
 31 28  1  0  0  0  0
 32 33  1  0  0  0  0
 32 34  1  0  0  0  0
 35 36  1  0  0  0  0
 35 32  1  0  0  0  0
 37 35  1  0  0  0  0
 38 35  1  0  0  0  0
M  CHG  2   1  -1   2  -1
M  END
