2,5,6
 OpenBabel05122313063D

 58 60  0  0  0  0  0  0  0  0999 V2000
   -8.6687   -1.2156   -0.2919 N   0  0  0  0  0  0  0  0  0  0  0  0
   -2.1235   -1.0932   -0.1564 N   0  0  0  0  0  2  0  0  0  0  0  0
   -0.8085   -1.4743   -0.1513 N   0  0  0  0  0  0  0  0  0  0  0  0
   12.3699   -0.5291    0.1489 N   0  0  0  0  0  0  0  0  0  0  0  0
   -4.2554    0.6197   -0.1491 O   0  5  0  0  0  0  0  0  0  0  0  0
   -0.5726    0.8167   -0.0830 O   0  5  0  0  0  0  0  0  0  0  0  0
   12.8387   -1.6660    0.0558 O   0  0  0  0  0  0  0  0  0  0  0  0
   13.0353    0.5036    0.2562 O   0  0  0  0  0  0  0  0  0  0  0  0
   -9.8316   -2.9346    1.1447 C   0  0  0  0  0  0  0  0  0  0  0  0
  -10.5109   -3.8094    1.0852 H   0  0  0  0  0  0  0  0  0  0  0  0
  -10.2947   -2.1887    1.8205 H   0  0  0  0  0  0  0  0  0  0  0  0
   -8.8828   -3.2679    1.6102 H   0  0  0  0  0  0  0  0  0  0  0  0
   -9.5858   -2.3490   -0.2510 C   0  0  0  0  0  0  0  0  0  0  0  0
  -10.5466   -2.0072   -0.6879 H   0  0  0  0  0  0  0  0  0  0  0  0
   -9.2139   -3.1414   -0.9345 H   0  0  0  0  0  0  0  0  0  0  0  0
   -9.3241    0.7394    1.1631 C   0  0  0  0  0  0  0  0  0  0  0  0
   -9.7242    1.7725    1.1105 H   0  0  0  0  0  0  0  0  0  0  0  0
   -8.3249    0.7815    1.6401 H   0  0  0  0  0  0  0  0  0  0  0  0
   -9.9896    0.1500    1.8243 H   0  0  0  0  0  0  0  0  0  0  0  0
   -9.2408    0.1241   -0.2394 C   0  0  0  0  0  0  0  0  0  0  0  0
   -8.6548    0.7884   -0.9099 H   0  0  0  0  0  0  0  0  0  0  0  0
  -10.2557    0.0667   -0.6841 H   0  0  0  0  0  0  0  0  0  0  0  0
   -7.2965   -1.3997   -0.2376 C   0  0  0  0  0  0  0  0  0  0  0  0
   -6.7308   -2.7212   -0.2394 C   0  0  0  0  0  0  0  0  0  0  0  0
   -7.3752   -3.6077   -0.2545 H   0  0  0  0  0  0  0  0  0  0  0  0
   -5.3589   -2.8932   -0.2249 C   0  0  0  0  0  3  0  0  0  0  0  0
   -4.9459   -3.9143   -0.2310 H   0  0  0  0  0  0  0  0  0  0  0  0
   -4.4475   -1.8000   -0.1979 C   0  0  0  0  0  0  0  0  0  0  0  0
   -4.9975   -0.4648   -0.1823 C   0  0  0  0  0  0  0  0  0  0  0  0
   -6.4046   -0.3044   -0.1978 C   0  0  0  0  0  0  0  0  0  0  0  0
   -6.7637    0.7313   -0.1842 H   0  0  0  0  0  0  0  0  0  0  0  0
   -3.0489   -2.0394   -0.1806 C   0  0  0  0  0  0  0  0  0  0  0  0
   -2.6699   -3.0768   -0.1925 H   0  0  0  0  0  0  0  0  0  0  0  0
   -0.0505   -0.3941   -0.1095 C   0  0  0  0  0  0  0  0  0  0  0  0
    1.4158   -0.5264   -0.0868 C   0  0  0  0  0  0  0  0  0  0  0  0
    2.0354   -1.7928   -0.1886 C   0  0  0  0  0  0  0  0  0  0  0  0
    1.3968   -2.6820   -0.2852 H   0  0  0  0  0  0  0  0  0  0  0  0
    3.4250   -1.8980   -0.1677 C   0  0  0  0  0  0  0  0  0  0  0  0
    3.8970   -2.8899   -0.2501 H   0  0  0  0  0  0  0  0  0  0  0  0
    4.2562   -0.7531   -0.0428 C   0  0  0  0  0  0  0  0  0  0  0  0
    3.6203    0.5115    0.0636 C   0  0  0  0  0  0  0  0  0  0  0  0
    4.2279    1.4227    0.1677 H   0  0  0  0  0  0  0  0  0  0  0  0
    2.2317    0.6226    0.0423 C   0  0  0  0  0  0  0  0  0  0  0  0
    1.7438    1.6032    0.1335 H   0  0  0  0  0  0  0  0  0  0  0  0
    5.7023   -0.9294   -0.0283 C   0  0  0  0  0  0  0  0  0  0  0  0
    6.0348   -1.9779   -0.1172 H   0  0  0  0  0  0  0  0  0  0  0  0
    6.6510    0.0459    0.0809 C   0  0  0  0  0  0  0  0  0  0  0  0
    6.3230    1.0951    0.1694 H   0  0  0  0  0  0  0  0  0  0  0  0
    8.0963   -0.1438    0.0943 C   0  0  0  0  0  0  0  0  0  0  0  0
    8.7200   -1.4176   -0.0079 C   0  0  0  0  0  0  0  0  0  0  0  0
    8.1040   -2.3233   -0.1027 H   0  0  0  0  0  0  0  0  0  0  0  0
   10.1070   -1.5473    0.0094 C   0  0  0  0  0  0  0  0  0  0  0  0
   10.6032   -2.5237   -0.0685 H   0  0  0  0  0  0  0  0  0  0  0  0
   10.9008   -0.3944    0.1304 C   0  0  0  0  0  0  0  0  0  0  0  0
   10.3275    0.8808    0.2339 C   0  0  0  0  0  0  0  0  0  0  0  0
   10.9875    1.7533    0.3269 H   0  0  0  0  0  0  0  0  0  0  0  0
    8.9369    0.9954    0.2152 C   0  0  0  0  0  0  0  0  0  0  0  0
    8.4743    1.9912    0.2958 H   0  0  0  0  0  0  0  0  0  0  0  0
  1 13  1  0  0  0  0
  1 20  1  0  0  0  0
  1 23  1  0  0  0  0
  2  3  1  0  0  0  0
  3 34  2  0  0  0  0
  4  8  2  0  0  0  0
  7  4  2  0  0  0  0
  9 12  1  0  0  0  0
  9 11  1  0  0  0  0
 10  9  1  0  0  0  0
 13  9  1  0  0  0  0
 14 13  1  0  0  0  0
 15 13  1  0  0  0  0
 16 18  1  0  0  0  0
 16 19  1  0  0  0  0
 17 16  1  0  0  0  0
 20 16  1  0  0  0  0
 21 20  1  0  0  0  0
 22 20  1  0  0  0  0
 23 30  1  0  0  0  0
 24 23  2  0  0  0  0
 24 26  1  0  0  0  0
 25 24  1  0  0  0  0
 26 28  1  0  0  0  0
 27 26  1  0  0  0  0
 28 29  1  0  0  0  0
 28 32  2  0  0  0  0
 29  5  1  0  0  0  0
 30 31  1  0  0  0  0
 30 29  2  0  0  0  0
 32  2  1  0  0  0  0
 33 32  1  0  0  0  0
 34 35  1  0  0  0  0
 34  6  1  0  0  0  0
 35 43  1  0  0  0  0
 36 38  1  0  0  0  0
 36 35  2  0  0  0  0
 37 36  1  0  0  0  0
 38 40  2  0  0  0  0
 39 38  1  0  0  0  0
 40 45  1  0  0  0  0
 40 41  1  0  0  0  0
 41 42  1  0  0  0  0
 43 41  2  0  0  0  0
 43 44  1  0  0  0  0
 45 47  2  0  0  0  0
 46 45  1  0  0  0  0
 47 49  1  0  0  0  0
 47 48  1  0  0  0  0
 49 57  1  0  0  0  0
 50 52  1  0  0  0  0
 50 49  2  0  0  0  0
 51 50  1  0  0  0  0
 52 54  2  0  0  0  0
 53 52  1  0  0  0  0
 54  4  1  0  0  0  0
 54 55  1  0  0  0  0
 55 56  1  0  0  0  0
 57 55  2  0  0  0  0
 57 58  1  0  0  0  0
M  CHG  2   5  -1   6  -1
M  END
