1,2,3
 OpenBabel05122313063D

 29 29  0  0  1  0  0  0  0  0999 V2000
   -1.6955    1.7611   -1.2820 N   0  0  0  0  0  0  0  0  0  0  0  0
   -1.2568   -0.7253   -0.5705 O   0  0  0  0  0  1  0  0  0  0  0  0
    0.9151    1.3058   -1.4338 O   0  0  0  0  0  1  0  0  0  0  0  0
   -1.8533    3.1425   -0.8352 C   0  0  0  0  0  0  0  0  0  0  0  0
   -2.5460   -0.5526   -1.0817 C   0  0  2  0  0  0  0  0  0  0  0  0
   -2.8965    0.9582   -1.0434 C   0  0  0  0  0  0  0  0  0  0  0  0
   -1.1312    1.6549   -2.6328 C   0  0  0  0  0  0  0  0  0  0  0  0
    0.3754    1.9428   -2.5497 C   0  0  0  0  0  0  0  0  0  0  0  0
   -3.5803   -1.3449   -0.2970 C   0  0  0  0  0  0  0  0  0  0  0  0
   -3.5017   -1.3813    1.1095 C   0  0  0  0  0  0  0  0  0  0  0  0
   -4.4681   -2.0730    1.8521 C   0  0  0  0  0  0  0  0  0  0  0  0
   -5.5255   -2.7312    1.2002 C   0  0  0  0  0  0  0  0  0  0  0  0
   -5.6093   -2.6963   -0.1999 C   0  0  0  0  0  0  0  0  0  0  0  0
   -4.6371   -2.0079   -0.9440 C   0  0  0  0  0  0  0  0  0  0  0  0
   -2.5707   -0.9149   -2.1394 H   0  0  0  0  0  0  0  0  0  0  0  0
   -1.2727    0.6127   -2.9799 H   0  0  0  0  0  0  0  0  0  0  0  0
   -2.1122    3.1415    0.2404 H   0  0  0  0  0  0  0  0  0  0  0  0
   -0.8996    3.6916   -0.9586 H   0  0  0  0  0  0  0  0  0  0  0  0
   -4.6944   -1.9919   -2.0447 H   0  0  0  0  0  0  0  0  0  0  0  0
   -3.2427    1.2063   -0.0208 H   0  0  0  0  0  0  0  0  0  0  0  0
    0.8675    1.5979   -3.4904 H   0  0  0  0  0  0  0  0  0  0  0  0
   -6.4307   -3.2155   -0.7174 H   0  0  0  0  0  0  0  0  0  0  0  0
    0.5572    3.0467   -2.4959 H   0  0  0  0  0  0  0  0  0  0  0  0
   -3.7276    1.1932   -1.7525 H   0  0  0  0  0  0  0  0  0  0  0  0
   -1.6452    2.3285   -3.3621 H   0  0  0  0  0  0  0  0  0  0  0  0
   -6.2821   -3.2761    1.7853 H   0  0  0  0  0  0  0  0  0  0  0  0
   -4.3967   -2.1019    2.9504 H   0  0  0  0  0  0  0  0  0  0  0  0
   -2.6697   -0.8588    1.6072 H   0  0  0  0  0  0  0  0  0  0  0  0
   -2.6432    3.6849   -1.4088 H   0  0  0  0  0  0  0  0  0  0  0  0
  1  6  1  0  0  0  0
  1  4  1  0  0  0  0
  4 17  1  0  0  0  0
  5 15  1  6  0  0  0
  5  6  1  0  0  0  0
  5  2  1  0  0  0  0
  5  9  1  0  0  0  0
  6 20  1  0  0  0  0
  7  8  1  0  0  0  0
  7  1  1  0  0  0  0
  8 23  1  0  0  0  0
  8  3  1  0  0  0  0
  9 10  1  0  0  0  0
 10 28  1  0  0  0  0
 10 11  2  0  0  0  0
 11 27  1  0  0  0  0
 12 26  1  0  0  0  0
 12 11  1  0  0  0  0
 13 12  2  0  0  0  0
 14  9  2  0  0  0  0
 14 13  1  0  0  0  0
 16  7  1  0  0  0  0
 18  4  1  0  0  0  0
 19 14  1  0  0  0  0
 21  8  1  0  0  0  0
 22 13  1  0  0  0  0
 24  6  1  0  0  0  0
 25  7  1  0  0  0  0
 29  4  1  0  0  0  0
M  END
