1,3,4
 OpenBabel05122313063D

 31 32  0  0  0  0  0  0  0  0999 V2000
   -0.1966    0.5478   -0.0692 N   0  0  0  0  0  2  0  0  0  0  0  0
   -1.4709    1.0174    0.0286 N   0  0  0  0  0  0  0  0  0  0  0  0
    1.8356   -1.2820    0.0207 O   0  5  0  0  0  0  0  0  0  0  0  0
   -1.9478   -1.2237   -0.2813 O   0  5  0  0  0  0  0  0  0  0  0  0
    4.6862   -2.2426    0.0455 Br  0  0  0  0  0  0  0  0  0  0  0  0
    5.7139    3.3706   -0.0963 Br  0  0  0  0  0  0  0  0  0  0  0  0
    2.1793    1.1106   -0.0486 C   0  0  0  0  0  0  0  0  0  0  0  0
    2.6522   -0.2406   -0.0306 C   0  0  0  0  0  0  0  0  0  0  0  0
    4.0559   -0.4596   -0.0180 C   0  0  0  0  0  0  0  0  0  0  0  0
    4.9634    0.6052   -0.0399 C   0  0  0  0  0  0  0  0  0  0  0  0
    6.0430    0.4042   -0.0339 H   0  0  0  0  0  0  0  0  0  0  0  0
    4.4786    1.9275   -0.0652 C   0  0  0  0  0  0  0  0  0  0  0  0
    3.1078    2.1829   -0.0624 C   0  0  0  0  0  0  0  0  0  0  0  0
    2.7357    3.2172   -0.0744 H   0  0  0  0  0  0  0  0  0  0  0  0
    0.7721    1.4293   -0.0090 C   0  0  0  0  0  3  0  0  0  0  0  0
    0.4760    2.4913    0.0811 H   0  0  0  0  0  0  0  0  0  0  0  0
   -2.3322    0.0268   -0.1097 C   0  0  0  0  0  0  0  0  0  0  0  0
   -3.7814    0.2946   -0.0632 C   0  0  0  0  0  0  0  0  0  0  0  0
   -4.2629    1.6076    0.1374 C   0  0  0  0  0  0  0  0  0  0  0  0
   -3.5380    2.4245    0.2566 H   0  0  0  0  0  0  0  0  0  0  0  0
   -5.6372    1.8486    0.1865 C   0  0  0  0  0  0  0  0  0  0  0  0
   -6.0164    2.8671    0.3521 H   0  0  0  0  0  0  0  0  0  0  0  0
   -6.5447    0.7829    0.0321 C   0  0  0  0  0  0  0  0  0  0  0  0
   -6.0713   -0.5255   -0.1666 C   0  0  0  0  0  0  0  0  0  0  0  0
   -6.7865   -1.3526   -0.2772 H   0  0  0  0  0  0  0  0  0  0  0  0
   -4.6949   -0.7699   -0.2138 C   0  0  0  0  0  0  0  0  0  0  0  0
   -4.3066   -1.7865   -0.3659 H   0  0  0  0  0  0  0  0  0  0  0  0
   -8.0304    1.0618    0.0289 C   0  0  0  0  0  0  0  0  0  0  0  0
   -8.4573    1.4285   -1.2053 F   0  0  0  0  0  0  0  0  0  0  0  0
   -8.3505    2.0700    0.8751 F   0  0  0  0  0  0  0  0  0  0  0  0
   -8.7491   -0.0254    0.3939 F   0  0  0  0  0  0  0  0  0  0  0  0
  1 15  1  0  0  0  0
  1  2  1  0  0  0  0
  4 17  1  0  0  0  0
  6 12  1  0  0  0  0
  7  8  1  0  0  0  0
  7 15  1  0  0  0  0
  8  9  2  0  0  0  0
  8  3  1  0  0  0  0
  9  5  1  0  0  0  0
 10 11  1  0  0  0  0
 10  9  1  0  0  0  0
 12 13  1  0  0  0  0
 12 10  2  0  0  0  0
 13  7  2  0  0  0  0
 14 13  1  0  0  0  0
 15 16  1  0  0  0  0
 17 18  1  0  0  0  0
 17  2  2  0  0  0  0
 18 19  1  0  0  0  0
 19 21  2  0  0  0  0
 19 20  1  0  0  0  0
 21 22  1  0  0  0  0
 23 21  1  0  0  0  0
 24 23  2  0  0  0  0
 25 24  1  0  0  0  0
 26 24  1  0  0  0  0
 26 18  2  0  0  0  0
 27 26  1  0  0  0  0
 28 23  1  0  0  0  0
 28 31  1  0  0  0  0
 28 30  1  0  0  0  0
 29 28  1  0  0  0  0
M  CHG  2   3  -1   4  -1
M  END
