2,4,5
 OpenBabel05122313063D

 45 46  0  0  0  0  0  0  0  0999 V2000
   -1.9326    1.2802    0.0156 N   0  0  0  0  0  0  0  0  0  0  0  0
   -0.6604    0.7826   -0.0680 N   0  0  0  0  0  2  0  0  0  0  0  0
    5.8855    0.4920    0.0533 N   0  0  0  0  0  0  0  0  0  0  0  0
   -2.4294   -0.9491   -0.3101 O   0  5  0  0  0  0  0  0  0  0  0  0
    1.3683   -1.0586   -0.1319 O   0  5  0  0  0  0  0  0  0  0  0  0
   -4.2544    0.5887   -0.1042 C   0  0  0  0  0  0  0  0  0  0  0  0
   -5.1799   -0.4627   -0.2659 C   0  0  0  0  0  0  0  0  0  0  0  0
   -4.8011   -1.4816   -0.4291 H   0  0  0  0  0  0  0  0  0  0  0  0
   -6.5554   -0.2033   -0.2229 C   0  0  0  0  0  0  0  0  0  0  0  0
   -7.2679   -1.0332   -0.3522 H   0  0  0  0  0  0  0  0  0  0  0  0
   -7.0474    1.1014   -0.0195 C   0  0  0  0  0  0  0  0  0  0  0  0
   -6.1092    2.1475    0.1411 C   0  0  0  0  0  0  0  0  0  0  0  0
   -6.4713    3.1758    0.3006 H   0  0  0  0  0  0  0  0  0  0  0  0
   -4.7360    1.9023    0.0996 C   0  0  0  0  0  0  0  0  0  0  0  0
   -4.0077    2.7163    0.2229 H   0  0  0  0  0  0  0  0  0  0  0  0
   -8.5264    1.3868    0.0203 C   0  0  0  0  0  0  0  0  0  0  0  0
   -9.1258    0.4604   -0.0680 H   0  0  0  0  0  0  0  0  0  0  0  0
   -8.8258    2.0646   -0.8069 H   0  0  0  0  0  0  0  0  0  0  0  0
   -8.8144    1.8926    0.9655 H   0  0  0  0  0  0  0  0  0  0  0  0
   -2.8094    0.3124   -0.1437 C   0  0  0  0  0  0  0  0  0  0  0  0
    0.3239    1.6444    0.0957 C   0  0  0  0  0  3  0  0  0  0  0  0
    0.0282    2.6992    0.2516 H   0  0  0  0  0  0  0  0  0  0  0  0
    1.7130    1.3212    0.0819 C   0  0  0  0  0  0  0  0  0  0  0  0
    2.2001   -0.0228   -0.0459 C   0  0  0  0  0  0  0  0  0  0  0  0
    3.5770   -0.2822   -0.0503 C   0  0  0  0  0  0  0  0  0  0  0  0
    3.8701   -1.3353   -0.1273 H   0  0  0  0  0  0  0  0  0  0  0  0
    4.5355    0.7607    0.0674 C   0  0  0  0  0  0  0  0  0  0  0  0
    4.0451    2.1013    0.2033 C   0  0  0  0  0  0  0  0  0  0  0  0
    4.7397    2.9458    0.2825 H   0  0  0  0  0  0  0  0  0  0  0  0
    2.6825    2.3518    0.2116 C   0  0  0  0  0  0  0  0  0  0  0  0
    2.3286    3.3903    0.3086 H   0  0  0  0  0  0  0  0  0  0  0  0
    6.8821    1.5354    0.2742 C   0  0  0  0  0  0  0  0  0  0  0  0
    7.7660    1.0564    0.7451 H   0  0  0  0  0  0  0  0  0  0  0  0
    6.4995    2.2530    1.0283 H   0  0  0  0  0  0  0  0  0  0  0  0
    7.3012    2.2665   -1.0042 C   0  0  0  0  0  0  0  0  0  0  0  0
    7.7224    1.5597   -1.7475 H   0  0  0  0  0  0  0  0  0  0  0  0
    8.0743    3.0302   -0.7840 H   0  0  0  0  0  0  0  0  0  0  0  0
    6.4366    2.7743   -1.4760 H   0  0  0  0  0  0  0  0  0  0  0  0
    6.3960   -0.8555   -0.1834 C   0  0  0  0  0  0  0  0  0  0  0  0
    7.3877   -0.7545   -0.6722 H   0  0  0  0  0  0  0  0  0  0  0  0
    5.7490   -1.3635   -0.9271 H   0  0  0  0  0  0  0  0  0  0  0  0
    6.5212   -1.6980    1.0888 C   0  0  0  0  0  0  0  0  0  0  0  0
    7.2003   -1.2162    1.8213 H   0  0  0  0  0  0  0  0  0  0  0  0
    6.9297   -2.7016    0.8543 H   0  0  0  0  0  0  0  0  0  0  0  0
    5.5363   -1.8322    1.5782 H   0  0  0  0  0  0  0  0  0  0  0  0
  2  1  1  0  0  0  0
  2 21  1  0  0  0  0
  3 27  1  0  0  0  0
  3 32  1  0  0  0  0
  4 20  1  0  0  0  0
  5 24  1  0  0  0  0
  6 14  1  0  0  0  0
  7  9  1  0  0  0  0
  7  6  2  0  0  0  0
  8  7  1  0  0  0  0
  9 11  2  0  0  0  0
 10  9  1  0  0  0  0
 11 16  1  0  0  0  0
 11 12  1  0  0  0  0
 12 13  1  0  0  0  0
 14 12  2  0  0  0  0
 14 15  1  0  0  0  0
 16 19  1  0  0  0  0
 17 16  1  0  0  0  0
 18 16  1  0  0  0  0
 20  6  1  0  0  0  0
 20  1  2  0  0  0  0
 21 22  1  0  0  0  0
 23 21  1  0  0  0  0
 23 30  1  0  0  0  0
 24 23  2  0  0  0  0
 25 24  1  0  0  0  0
 25 27  2  0  0  0  0
 26 25  1  0  0  0  0
 27 28  1  0  0  0  0
 28 30  2  0  0  0  0
 28 29  1  0  0  0  0
 30 31  1  0  0  0  0
 32 33  1  0  0  0  0
 32 34  1  0  0  0  0
 35 37  1  0  0  0  0
 35 32  1  0  0  0  0
 36 35  1  0  0  0  0
 38 35  1  0  0  0  0
 39  3  1  0  0  0  0
 39 42  1  0  0  0  0
 40 39  1  0  0  0  0
 41 39  1  0  0  0  0
 42 45  1  0  0  0  0
 42 43  1  0  0  0  0
 44 42  1  0  0  0  0
M  CHG  2   4  -1   5  -1
M  END
