1,2,4
 OpenBabel05122313063D

 39 41  0  0  1  0  0  0  0  0999 V2000
   -1.5050   -1.3650    0.5853 O   0  5  0  0  0  0  0  0  0  0  0  0
   -2.8402    2.0048   -0.1844 O   0  5  0  0  0  0  0  0  0  0  0  0
   -2.2862    4.0644   -0.9087 O   0  0  0  0  0  0  0  0  0  0  0  0
   -0.5258    0.9908   -0.3341 N   0  0  0  0  0  2  0  0  0  0  0  0
   -0.3088   -1.8571    0.3381 C   0  0  0  0  0  0  0  0  0  0  0  0
   -0.0899   -3.2381    0.6617 C   0  0  0  0  0  0  0  0  0  0  0  0
   -0.9284   -3.8017    1.0978 H   0  0  0  0  0  0  0  0  0  0  0  0
    1.1271   -3.8375    0.4320 C   0  0  0  0  0  0  0  0  0  0  0  0
    1.2706   -4.9005    0.6818 H   0  0  0  0  0  0  0  0  0  0  0  0
    2.2296   -3.1113   -0.1201 C   0  0  0  0  0  0  0  0  0  0  0  0
    3.4876   -3.7400   -0.3296 C   0  0  0  0  0  0  0  0  0  0  0  0
    3.5899   -4.8055   -0.0702 H   0  0  0  0  0  0  0  0  0  0  0  0
    4.5661   -3.0320   -0.8430 C   0  0  0  0  0  0  0  0  0  0  0  0
    5.5358   -3.5270   -1.0000 H   0  0  0  0  0  0  0  0  0  0  0  0
    4.4053   -1.6617   -1.1572 C   0  0  0  0  0  0  0  0  0  0  0  0
    5.2556   -1.0864   -1.5541 H   0  0  0  0  0  0  0  0  0  0  0  0
    3.1832   -1.0245   -0.9668 C   0  0  0  0  0  0  0  0  0  0  0  0
    3.1143    0.0438   -1.2123 H   0  0  0  0  0  0  0  0  0  0  0  0
    2.0540   -1.7213   -0.4510 C   0  0  2  0  0  3  0  0  0  0  0  0
    0.7589   -1.0950   -0.2279 C   0  0  0  0  0  0  0  0  0  0  0  0
    0.5698    0.2890   -0.5329 C   0  0  0  0  0  0  0  0  0  0  0  0
    1.4209    0.8417   -0.9616 H   0  0  0  0  0  0  0  0  0  0  0  0
    2.1425    1.9262    1.6067 C   0  0  0  0  0  0  0  0  0  0  0  0
    1.4228    1.4838    2.3131 H   0  0  0  0  0  0  0  0  0  0  0  0
    3.4889    1.5317    1.6413 C   0  0  0  0  0  0  0  0  0  0  0  0
    3.8211    0.7840    2.3770 H   0  0  0  0  0  0  0  0  0  0  0  0
    4.4061    2.0806    0.7322 C   0  0  0  0  0  0  0  0  0  0  0  0
    5.4610    1.7682    0.7547 H   0  0  0  0  0  0  0  0  0  0  0  0
    3.9690    3.0283   -0.2086 C   0  0  0  0  0  0  0  0  0  0  0  0
    4.6839    3.4697   -0.9197 H   0  0  0  0  0  0  0  0  0  0  0  0
    2.6217    3.4186   -0.2415 C   0  0  0  0  0  0  0  0  0  0  0  0
    2.2842    4.1613   -0.9825 H   0  0  0  0  0  0  0  0  0  0  0  0
    1.6882    2.8715    0.6640 C   0  0  0  0  0  0  0  0  0  0  0  0
    0.2248    3.2154    0.5586 C   0  0  0  0  0  0  0  0  0  0  0  0
    0.0754    4.2887    0.3221 H   0  0  0  0  0  0  0  0  0  0  0  0
   -0.2934    3.0083    1.5173 H   0  0  0  0  0  0  0  0  0  0  0  0
   -0.5206    2.4386   -0.5608 C   0  0  2  0  0  0  0  0  0  0  0  0
   -0.0381    2.6715   -1.5352 H   0  0  0  0  0  0  0  0  0  0  0  0
   -1.9830    2.9252   -0.5917 C   0  0  0  0  0  0  0  0  0  0  0  0
  3 39  2  0  0  0  0
  5  1  1  0  0  0  0
  5  6  2  0  0  0  0
  6  7  1  0  0  0  0
  8  6  1  0  0  0  0
  8  9  1  0  0  0  0
 10  8  2  0  0  0  0
 11 10  1  0  0  0  0
 11 12  1  0  0  0  0
 13 11  2  0  0  0  0
 14 13  1  0  0  0  0
 15 17  2  0  0  0  0
 15 13  1  0  0  0  0
 16 15  1  0  0  0  0
 18 17  1  0  0  0  0
 19 17  1  1  0  0  0
 19 20  1  0  0  0  0
 19 10  1  0  0  0  0
 20  5  1  0  0  0  0
 21  4  1  0  0  0  0
 21 20  2  0  0  0  0
 22 21  1  0  0  0  0
 23 25  1  0  0  0  0
 23 24  1  0  0  0  0
 25 26  1  0  0  0  0
 27 28  1  0  0  0  0
 27 25  2  0  0  0  0
 29 27  1  0  0  0  0
 30 29  1  0  0  0  0
 31 29  2  0  0  0  0
 31 33  1  0  0  0  0
 32 31  1  0  0  0  0
 33 23  2  0  0  0  0
 34 33  1  0  0  0  0
 34 36  1  0  0  0  0
 35 34  1  0  0  0  0
 37 38  1  6  0  0  0
 37  4  1  0  0  0  0
 37 34  1  0  0  0  0
 39 37  1  0  0  0  0
 39  2  1  0  0  0  0
M  CHG  2   1  -1   2  -1
M  END
