1,12,14
 OpenBabel05122313063D

 21 21  0  0  1  0  0  0  0  0999 V2000
   -0.0048   -0.1524   -0.0512 N   0  0  0  0  0  2  0  0  0  0  0  0
   -0.9705   -1.1055   -0.0757 C   0  0  1  0  0  3  0  0  0  0  0  0
   -2.3242   -0.7091   -0.0587 C   0  0  0  0  0  0  0  0  0  0  0  0
   -2.5795    0.6762   -0.0154 C   0  0  0  0  0  0  0  0  0  0  0  0
   -3.6280    1.0114    0.0048 H   0  0  0  0  0  0  0  0  0  0  0  0
   -1.5655    1.6544    0.0003 C   0  0  0  0  0  0  0  0  0  0  0  0
   -0.2327    1.1858   -0.0173 C   0  0  0  0  0  0  0  0  0  0  0  0
   -0.3199   -2.4751   -0.1529 C   0  0  0  0  0  0  0  0  0  0  0  0
    1.0843    1.9301   -0.0432 C   0  0  0  0  0  0  0  0  0  0  0  0
   -2.0697    3.1086    0.0474 C   0  0  0  0  0  0  0  0  0  0  0  0
   -3.5768   -1.6049   -0.0732 C   0  0  0  0  0  0  0  0  0  0  0  0
    0.9847   -2.4226   -0.1634 O   0  5  0  0  0  0  0  0  0  0  0  0
   -0.9607   -3.5329   -0.2143 O   0  0  0  0  0  0  0  0  0  0  0  0
    2.1228    1.1238   -0.0473 O   0  5  0  0  0  0  0  0  0  0  0  0
    1.1895    3.1613   -0.0737 O   0  0  0  0  0  0  0  0  0  0  0  0
   -3.2702    3.3018    0.1090 O   0  0  0  0  0  0  0  0  0  0  0  0
   -1.1888    4.0948    0.0159 O   0  0  0  0  0  0  0  0  0  0  0  0
   -0.2222    3.7774   -0.0284 H   0  0  0  0  0  0  0  0  0  0  0  0
   -4.6691   -1.0669   -0.0236 O   0  0  0  0  0  0  0  0  0  0  0  0
   -3.4228   -2.9139   -0.1404 O   0  0  0  0  0  0  0  0  0  0  0  0
   -2.4427   -3.2153   -0.1737 H   0  0  0  0  0  0  0  0  0  0  0  0
  1  7  1  0  0  0  0
  2  8  1  6  0  0  0
  2  3  1  0  0  0  0
  2  1  1  0  0  0  0
  3  4  2  0  0  0  0
  4  6  1  0  0  0  0
  4  5  1  0  0  0  0
  6 10  1  0  0  0  0
  7  6  2  0  0  0  0
  9  7  1  0  0  0  0
 10 16  2  0  0  0  0
 11  3  1  0  0  0  0
 11 19  2  0  0  0  0
 12  8  1  0  0  0  0
 13  8  2  0  0  0  0
 14  9  1  0  0  0  0
 15  9  2  0  0  0  0
 17 10  1  0  0  0  0
 18 17  1  0  0  0  0
 20 11  1  0  0  0  0
 21 20  1  0  0  0  0
M  CHG  2  12  -1  14  -1
M  END
