1,2,4
 OpenBabel05122313063D

 28 28  0  0  1  0  0  0  0  0999 V2000
    2.9132   -0.3340   -0.1794 O   0  0  0  0  0  1  0  0  0  0  0  0
   -0.8470   -0.6343   -0.0733 O   0  5  0  0  0  0  0  0  0  0  0  0
   -3.3505   -1.3741   -0.1458 O   0  0  0  0  0  0  0  0  0  0  0  0
    1.0039    1.3566    0.1511 N   0  0  0  0  0  2  0  0  0  0  0  0
    3.3200    1.0062   -0.3728 C   0  0  1  0  0  0  0  0  0  0  0  0
    2.3348    1.8697    0.4308 C   0  0  0  0  0  0  0  0  0  0  0  0
   -0.0327    2.1395    0.1545 C   0  0  0  0  0  3  0  0  0  0  0  0
   -1.4019    1.7185   -0.0169 C   0  0  0  0  0  0  0  0  0  0  0  0
   -2.4305    2.7031   -0.0318 C   0  0  0  0  0  0  0  0  0  0  0  0
   -3.7635    2.3256   -0.1115 C   0  0  0  0  0  0  0  0  0  0  0  0
   -4.1121    0.9550   -0.1561 C   0  0  0  0  0  0  0  0  0  0  0  0
   -3.1249   -0.0379   -0.1296 C   0  0  0  0  0  0  0  0  0  0  0  0
   -1.7367    0.3328   -0.0859 C   0  0  0  0  0  0  0  0  0  0  0  0
    4.7701    1.1817    0.0542 C   0  0  0  0  0  0  0  0  0  0  0  0
   -4.6890   -1.8241   -0.2220 C   0  0  0  0  0  0  0  0  0  0  0  0
    3.2082    1.2642   -1.4559 H   0  0  0  0  0  0  0  0  0  0  0  0
    2.5491    1.7166    1.5126 H   0  0  0  0  0  0  0  0  0  0  0  0
    2.4250    2.9547    0.2026 H   0  0  0  0  0  0  0  0  0  0  0  0
    0.1203    3.2265    0.3337 H   0  0  0  0  0  0  0  0  0  0  0  0
   -2.1484    3.7659    0.0215 H   0  0  0  0  0  0  0  0  0  0  0  0
   -4.5583    3.0850   -0.1343 H   0  0  0  0  0  0  0  0  0  0  0  0
   -5.1722    0.6728   -0.2111 H   0  0  0  0  0  0  0  0  0  0  0  0
    5.4200    0.5079   -0.5359 H   0  0  0  0  0  0  0  0  0  0  0  0
    4.8902    0.9276    1.1267 H   0  0  0  0  0  0  0  0  0  0  0  0
    5.1086    2.2251   -0.1079 H   0  0  0  0  0  0  0  0  0  0  0  0
   -5.1902   -1.4727   -1.1520 H   0  0  0  0  0  0  0  0  0  0  0  0
   -5.2897   -1.4903    0.6544 H   0  0  0  0  0  0  0  0  0  0  0  0
   -4.6467   -2.9287   -0.2315 H   0  0  0  0  0  0  0  0  0  0  0  0
  3 12  1  0  0  0  0
  4  7  1  0  0  0  0
  4  6  1  0  0  0  0
  5 16  1  6  0  0  0
  5  1  1  0  0  0  0
  5 14  1  0  0  0  0
  5  6  1  0  0  0  0
  6 17  1  0  0  0  0
  7 19  1  0  0  0  0
  8  7  1  0  0  0  0
  9  8  1  0  0  0  0
  9 20  1  0  0  0  0
 10  9  2  0  0  0  0
 11 12  2  0  0  0  0
 11 10  1  0  0  0  0
 12 13  1  0  0  0  0
 13  2  1  0  0  0  0
 13  8  2  0  0  0  0
 14 24  1  0  0  0  0
 15  3  1  0  0  0  0
 15 27  1  0  0  0  0
 18  6  1  0  0  0  0
 21 10  1  0  0  0  0
 22 11  1  0  0  0  0
 23 14  1  0  0  0  0
 25 14  1  0  0  0  0
 26 15  1  0  0  0  0
 28 15  1  0  0  0  0
M  CHG  1   2  -1
M  END
