1,2,3
 OpenBabel05122313063D

 30 31  0  0  1  0  0  0  0  0999 V2000
   -0.1081   -1.5094   -0.0814 O   0  5  0  0  0  0  0  0  0  0  0  0
   -3.1605    0.7206   -0.2909 O   0  0  0  0  0  1  0  0  0  0  0  0
   -0.6763    1.1103    0.2174 N   0  0  0  0  0  2  0  0  0  0  0  0
    1.5850    0.2083    0.0243 C   0  0  0  0  0  0  0  0  0  0  0  0
    1.1551   -1.1473   -0.0845 C   0  0  0  0  0  0  0  0  0  0  0  0
    2.1284   -2.1965   -0.1525 C   0  0  0  0  0  0  0  0  0  0  0  0
    1.7509   -3.2268   -0.2158 H   0  0  0  0  0  0  0  0  0  0  0  0
    3.4744   -1.9085   -0.1546 C   0  0  0  0  0  0  0  0  0  0  0  0
    4.2109   -2.7250   -0.2190 H   0  0  0  0  0  0  0  0  0  0  0  0
    5.3494   -0.2828   -0.1143 C   0  0  0  0  0  0  0  0  0  0  0  0
    6.0520   -1.1283   -0.1787 H   0  0  0  0  0  0  0  0  0  0  0  0
    5.8191    1.0225   -0.0644 C   0  0  0  0  0  0  0  0  0  0  0  0
    6.8994    1.2287   -0.0860 H   0  0  0  0  0  0  0  0  0  0  0  0
    4.8919    2.0893    0.0037 C   0  0  0  0  0  0  0  0  0  0  0  0
    5.2543    3.1282    0.0288 H   0  0  0  0  0  0  0  0  0  0  0  0
    3.5228    1.8427    0.0288 C   0  0  0  0  0  0  0  0  0  0  0  0
    2.8390    2.7025    0.0560 H   0  0  0  0  0  0  0  0  0  0  0  0
    3.9555   -0.5626   -0.0890 C   0  0  0  0  0  0  0  0  0  0  0  0
    3.0056    0.5167   -0.0051 C   0  0  0  0  0  0  0  0  0  0  0  0
    0.6197    1.2453    0.2682 C   0  0  0  0  0  3  0  0  0  0  0  0
    1.0139    2.2372    0.5670 H   0  0  0  0  0  0  0  0  0  0  0  0
   -1.5562    2.2066    0.5881 C   0  0  0  0  0  0  0  0  0  0  0  0
   -1.0541    3.1957    0.5032 H   0  0  0  0  0  0  0  0  0  0  0  0
   -1.8788    2.0605    1.6436 H   0  0  0  0  0  0  0  0  0  0  0  0
   -2.7995    2.0886   -0.3069 C   0  0  2  0  0  0  0  0  0  0  0  0
   -2.5100    2.3740   -1.3492 H   0  0  0  0  0  0  0  0  0  0  0  0
   -3.9690    2.9444    0.1573 C   0  0  0  0  0  0  0  0  0  0  0  0
   -4.8411    2.7810   -0.5040 H   0  0  0  0  0  0  0  0  0  0  0  0
   -3.7075    4.0216    0.1315 H   0  0  0  0  0  0  0  0  0  0  0  0
   -4.2615    2.6703    1.1909 H   0  0  0  0  0  0  0  0  0  0  0  0
  3 20  1  0  0  0  0
  3 22  1  0  0  0  0
  4 20  1  0  0  0  0
  5  1  1  0  0  0  0
  5  4  2  0  0  0  0
  6  5  1  0  0  0  0
  7  6  1  0  0  0  0
  8  6  2  0  0  0  0
  8 18  1  0  0  0  0
  9  8  1  0  0  0  0
 10 18  2  0  0  0  0
 10 12  1  0  0  0  0
 11 10  1  0  0  0  0
 12 14  2  0  0  0  0
 13 12  1  0  0  0  0
 14 15  1  0  0  0  0
 14 16  1  0  0  0  0
 16 17  1  0  0  0  0
 18 19  1  0  0  0  0
 19  4  1  0  0  0  0
 19 16  2  0  0  0  0
 20 21  1  0  0  0  0
 22 24  1  0  0  0  0
 23 22  1  0  0  0  0
 25 26  1  6  0  0  0
 25  2  1  0  0  0  0
 25 27  1  0  0  0  0
 25 22  1  0  0  0  0
 27 30  1  0  0  0  0
 28 27  1  0  0  0  0
 29 27  1  0  0  0  0
M  CHG  1   1  -1
M  END
