1,2,3
 OpenBabel05122313063D

 35 36  0  0  1  0  0  0  0  0999 V2000
   -1.7564    0.2679   -0.3580 O   0  5  0  0  0  0  0  0  0  0  0  0
    1.8089    0.7219   -0.2269 O   0  5  0  0  0  0  0  0  0  0  0  0
    0.3659   -1.2214    0.1138 N   0  0  0  0  0  2  0  0  0  0  0  0
    1.6814   -1.5490    0.0274 N   0  0  0  0  0  0  0  0  0  0  0  0
   -2.4994   -0.7805   -0.0633 C   0  0  0  0  0  0  0  0  0  0  0  0
   -1.9093   -1.9912    0.2832 C   0  0  0  0  0  0  0  0  0  0  0  0
   -0.5037   -2.2225    0.2817 C   0  0  1  0  0  3  0  0  0  0  0  0
    0.0230   -3.6199    0.4559 C   0  0  0  0  0  0  0  0  0  0  0  0
    2.3979   -0.4495   -0.1190 C   0  0  0  0  0  0  0  0  0  0  0  0
   -3.9611   -0.5677   -0.1653 C   0  0  0  0  0  0  0  0  0  0  0  0
   -4.4451    0.7462   -0.3667 C   0  0  0  0  0  0  0  0  0  0  0  0
   -5.8197    0.9931   -0.4629 C   0  0  0  0  0  0  0  0  0  0  0  0
   -6.7367   -0.0653   -0.3616 C   0  0  0  0  0  0  0  0  0  0  0  0
   -6.2672   -1.3757   -0.1660 C   0  0  0  0  0  0  0  0  0  0  0  0
   -4.8941   -1.6267   -0.0704 C   0  0  0  0  0  0  0  0  0  0  0  0
    3.8699   -0.5136   -0.1859 C   0  0  0  0  0  0  0  0  0  0  0  0
    4.5410   -1.7548   -0.1083 C   0  0  0  0  0  0  0  0  0  0  0  0
    5.9376   -1.8019   -0.1719 C   0  0  0  0  0  0  0  0  0  0  0  0
    6.6806   -0.6159   -0.3113 C   0  0  0  0  0  0  0  0  0  0  0  0
    6.0181    0.6200   -0.3878 C   0  0  0  0  0  0  0  0  0  0  0  0
    4.6195    0.6737   -0.3268 C   0  0  0  0  0  0  0  0  0  0  0  0
   -2.5528   -2.8509    0.5021 H   0  0  0  0  0  0  0  0  0  0  0  0
   -0.7956   -4.3364    0.6490 H   0  0  0  0  0  0  0  0  0  0  0  0
    0.5811   -3.9320   -0.4499 H   0  0  0  0  0  0  0  0  0  0  0  0
    0.7574   -3.6507    1.2852 H   0  0  0  0  0  0  0  0  0  0  0  0
   -3.7178    1.5668   -0.4402 H   0  0  0  0  0  0  0  0  0  0  0  0
   -6.1795    2.0218   -0.6162 H   0  0  0  0  0  0  0  0  0  0  0  0
   -7.8174    0.1284   -0.4369 H   0  0  0  0  0  0  0  0  0  0  0  0
   -6.9794   -2.2113   -0.0921 H   0  0  0  0  0  0  0  0  0  0  0  0
   -4.5470   -2.6606    0.0671 H   0  0  0  0  0  0  0  0  0  0  0  0
    3.9425   -2.6701    0.0014 H   0  0  0  0  0  0  0  0  0  0  0  0
    6.4552   -2.7714   -0.1114 H   0  0  0  0  0  0  0  0  0  0  0  0
    7.7795   -0.6565   -0.3602 H   0  0  0  0  0  0  0  0  0  0  0  0
    6.5972    1.5497   -0.4965 H   0  0  0  0  0  0  0  0  0  0  0  0
    4.0842    1.6319   -0.3849 H   0  0  0  0  0  0  0  0  0  0  0  0
  1  5  1  0  0  0  0
  2  9  1  0  0  0  0
  4  3  1  0  0  0  0
  5  6  2  0  0  0  0
  6 22  1  0  0  0  0
  7  3  1  6  0  0  0
  7  6  1  0  0  0  0
  7  8  1  0  0  0  0
  8 23  1  0  0  0  0
  8 25  1  0  0  0  0
  9  4  2  0  0  0  0
 10 15  1  0  0  0  0
 10  5  1  0  0  0  0
 11 10  2  0  0  0  0
 12 11  1  0  0  0  0
 12 13  2  0  0  0  0
 13 14  1  0  0  0  0
 14 29  1  0  0  0  0
 14 15  2  0  0  0  0
 15 30  1  0  0  0  0
 16  9  1  0  0  0  0
 16 17  1  0  0  0  0
 17 31  1  0  0  0  0
 18 32  1  0  0  0  0
 18 17  2  0  0  0  0
 19 18  1  0  0  0  0
 20 21  1  0  0  0  0
 20 19  2  0  0  0  0
 21 16  2  0  0  0  0
 24  8  1  0  0  0  0
 26 11  1  0  0  0  0
 27 12  1  0  0  0  0
 28 13  1  0  0  0  0
 33 19  1  0  0  0  0
 34 20  1  0  0  0  0
 35 21  1  0  0  0  0
M  CHG  2   1  -1   2  -1
M  END
