2,4,5
 OpenBabel05122313063D

 35 36  0  0  0  0  0  0  0  0999 V2000
    3.7818    0.5728   -0.1290 Br  0  0  0  0  0  0  0  0  0  0  0  0
   -0.7593   -2.0851    0.0157 N   0  0  0  0  0  2  0  0  0  0  0  0
    0.4634   -2.6566    0.1912 N   0  0  0  0  0  0  0  0  0  0  0  0
   -2.5051   -0.0907   -0.0967 O   0  5  0  0  0  0  0  0  0  0  0  0
    1.0986   -0.6021   -0.5890 O   0  5  0  0  0  0  0  0  0  0  0  0
   -4.9973    0.7934   -0.1183 O   0  0  0  0  0  0  0  0  0  0  0  0
   -3.1760   -2.3625    0.2519 C   0  0  0  0  0  0  0  0  0  0  0  0
   -3.4648   -0.9799    0.0561 C   0  0  0  0  0  0  0  0  0  0  0  0
   -4.8274   -0.5384    0.0685 C   0  0  0  0  0  0  0  0  0  0  0  0
   -5.8538   -1.4739    0.2646 C   0  0  0  0  0  0  0  0  0  0  0  0
   -6.9018   -1.1455    0.2681 H   0  0  0  0  0  0  0  0  0  0  0  0
   -5.5576   -2.8428    0.4601 C   0  0  0  0  0  0  0  0  0  0  0  0
   -6.3819   -3.5546    0.6125 H   0  0  0  0  0  0  0  0  0  0  0  0
   -4.2404   -3.2839    0.4619 C   0  0  0  0  0  0  0  0  0  0  0  0
   -4.0010   -4.3465    0.6175 H   0  0  0  0  0  0  0  0  0  0  0  0
   -1.8140   -2.8154    0.3026 C   0  0  0  0  0  3  0  0  0  0  0  0
   -1.6127   -3.8553    0.6189 H   0  0  0  0  0  0  0  0  0  0  0  0
    1.4031   -1.7927   -0.1586 C   0  0  0  0  0  0  0  0  0  0  0  0
    2.8233   -2.2109   -0.0672 C   0  0  0  0  0  0  0  0  0  0  0  0
    3.9340   -1.3294   -0.0714 C   0  0  0  0  0  0  0  0  0  0  0  0
    5.2466   -1.8290    0.0069 C   0  0  0  0  0  0  0  0  0  0  0  0
    6.0866   -1.1204    0.0037 H   0  0  0  0  0  0  0  0  0  0  0  0
    5.4770   -3.2070    0.0937 C   0  0  0  0  0  0  0  0  0  0  0  0
    6.5104   -3.5811    0.1497 H   0  0  0  0  0  0  0  0  0  0  0  0
    4.3910   -4.0976    0.1126 C   0  0  0  0  0  0  0  0  0  0  0  0
    4.5600   -5.1821    0.1845 H   0  0  0  0  0  0  0  0  0  0  0  0
    3.0898   -3.5993    0.0350 C   0  0  0  0  0  0  0  0  0  0  0  0
    2.2202   -4.2710    0.0488 H   0  0  0  0  0  0  0  0  0  0  0  0
   -6.3212    1.3163   -0.1289 C   0  0  0  0  0  0  0  0  0  0  0  0
   -6.8268    1.0901    0.8397 H   0  0  0  0  0  0  0  0  0  0  0  0
   -6.9170    0.8242   -0.9337 H   0  0  0  0  0  0  0  0  0  0  0  0
   -6.2288    2.8126   -0.3586 C   0  0  0  0  0  0  0  0  0  0  0  0
   -5.6424    3.2959    0.4475 H   0  0  0  0  0  0  0  0  0  0  0  0
   -7.2413    3.2618   -0.3755 H   0  0  0  0  0  0  0  0  0  0  0  0
   -5.7310    3.0289   -1.3242 H   0  0  0  0  0  0  0  0  0  0  0  0
  1 20  1  0  0  0  0
  2  3  1  0  0  0  0
  2 16  1  0  0  0  0
  4  8  1  0  0  0  0
  5 18  1  0  0  0  0
  6  9  1  0  0  0  0
  7 16  1  0  0  0  0
  7 14  1  0  0  0  0
  8  9  1  0  0  0  0
  8  7  2  0  0  0  0
  9 10  2  0  0  0  0
 10 11  1  0  0  0  0
 10 12  1  0  0  0  0
 12 14  2  0  0  0  0
 12 13  1  0  0  0  0
 14 15  1  0  0  0  0
 16 17  1  0  0  0  0
 18 19  1  0  0  0  0
 18  3  2  0  0  0  0
 19 27  1  0  0  0  0
 20 19  2  0  0  0  0
 20 21  1  0  0  0  0
 21 23  2  0  0  0  0
 22 21  1  0  0  0  0
 23 25  1  0  0  0  0
 23 24  1  0  0  0  0
 25 26  1  0  0  0  0
 27 28  1  0  0  0  0
 27 25  2  0  0  0  0
 29  6  1  0  0  0  0
 29 30  1  0  0  0  0
 31 29  1  0  0  0  0
 32 29  1  0  0  0  0
 32 33  1  0  0  0  0
 34 32  1  0  0  0  0
 35 32  1  0  0  0  0
M  CHG  2   4  -1   5  -1
M  END
