2,3,5
 OpenBabel05122313063D

 32 33  0  0  0  0  0  0  0  0999 V2000
   -4.9498    1.6037   -0.3908 Br  0  0  0  0  0  0  0  0  0  0  0  0
   -2.3089    0.1076   -0.2257 O   0  5  0  0  0  0  0  0  0  0  0  0
    1.1242   -0.9268   -1.0655 O   0  5  0  0  0  0  0  0  0  0  0  0
    3.6715   -0.0786   -0.6437 O   0  0  0  0  0  0  0  0  0  0  0  0
   -0.6362   -1.8842    0.3486 N   0  0  0  0  0  2  0  0  0  0  0  0
    0.5892   -2.4278    0.5812 N   0  0  0  0  0  0  0  0  0  0  0  0
   -2.9933   -1.8384    0.9936 C   0  0  0  0  0  0  0  0  0  0  0  0
   -3.2633   -0.5787    0.3599 C   0  0  0  0  0  0  0  0  0  0  0  0
   -4.5891   -0.0684    0.4285 C   0  0  0  0  0  0  0  0  0  0  0  0
   -5.6059   -0.7746    1.0781 C   0  0  0  0  0  0  0  0  0  0  0  0
   -6.6200   -0.3503    1.1001 H   0  0  0  0  0  0  0  0  0  0  0  0
   -5.3303   -2.0113    1.6959 C   0  0  0  0  0  0  0  0  0  0  0  0
   -6.1373   -2.5573    2.2050 H   0  0  0  0  0  0  0  0  0  0  0  0
   -4.0372   -2.5293    1.6607 C   0  0  0  0  0  0  0  0  0  0  0  0
   -3.8070   -3.4893    2.1476 H   0  0  0  0  0  0  0  0  0  0  0  0
   -1.6544   -2.3615    1.0283 C   0  0  0  0  0  3  0  0  0  0  0  0
   -1.4367   -3.2192    1.6909 H   0  0  0  0  0  0  0  0  0  0  0  0
    1.4788   -1.8474   -0.2113 C   0  0  0  0  0  0  0  0  0  0  0  0
    2.8932   -2.2705   -0.1243 C   0  0  0  0  0  0  0  0  0  0  0  0
    3.9756   -1.3731   -0.3680 C   0  0  0  0  0  0  0  0  0  0  0  0
    5.3005   -1.8500   -0.2757 C   0  0  0  0  0  0  0  0  0  0  0  0
    6.1446   -1.1745   -0.4644 H   0  0  0  0  0  0  0  0  0  0  0  0
    5.5538   -3.1861    0.0668 C   0  0  0  0  0  0  0  0  0  0  0  0
    6.5962   -3.5346    0.1280 H   0  0  0  0  0  0  0  0  0  0  0  0
    4.4967   -4.0676    0.3354 C   0  0  0  0  0  0  0  0  0  0  0  0
    4.6958   -5.1134    0.6106 H   0  0  0  0  0  0  0  0  0  0  0  0
    3.1809   -3.6010    0.2429 C   0  0  0  0  0  0  0  0  0  0  0  0
    2.3281   -4.2632    0.4484 H   0  0  0  0  0  0  0  0  0  0  0  0
    4.7270    0.8421   -0.8481 C   0  0  0  0  0  0  0  0  0  0  0  0
    5.3816    0.9285    0.0474 H   0  0  0  0  0  0  0  0  0  0  0  0
    4.2503    1.8233   -1.0279 H   0  0  0  0  0  0  0  0  0  0  0  0
    5.3497    0.5683   -1.7285 H   0  0  0  0  0  0  0  0  0  0  0  0
  1  9  1  0  0  0  0
  2  8  1  0  0  0  0
  3 18  1  0  0  0  0
  4 20  1  0  0  0  0
  5  6  1  0  0  0  0
  5 16  1  0  0  0  0
  7 16  1  0  0  0  0
  7 14  1  0  0  0  0
  8  9  1  0  0  0  0
  8  7  2  0  0  0  0
  9 10  2  0  0  0  0
 10 11  1  0  0  0  0
 10 12  1  0  0  0  0
 12 13  1  0  0  0  0
 14 12  2  0  0  0  0
 14 15  1  0  0  0  0
 16 17  1  0  0  0  0
 18 19  1  0  0  0  0
 18  6  2  0  0  0  0
 19 27  1  0  0  0  0
 20 21  1  0  0  0  0
 20 19  2  0  0  0  0
 21 23  2  0  0  0  0
 22 21  1  0  0  0  0
 23 24  1  0  0  0  0
 23 25  1  0  0  0  0
 25 26  1  0  0  0  0
 27 25  2  0  0  0  0
 27 28  1  0  0  0  0
 29  4  1  0  0  0  0
 29 30  1  0  0  0  0
 31 29  1  0  0  0  0
 32 29  1  0  0  0  0
M  CHG  2   2  -1   3  -1
M  END
