2,5,6
 OpenBabel05122313063D

 27 28  0  0  0  0  0  0  0  0999 V2000
    6.7338   -1.5702    0.9500 F   0  0  0  0  0  0  0  0  0  0  0  0
    0.7655   -1.4420   -0.0337 N   0  0  0  0  0  2  0  0  0  0  0  0
   -0.3196   -2.1981    0.2902 N   0  0  0  0  0  0  0  0  0  0  0  0
   -5.0886   -2.3378   -0.5418 N   0  0  0  0  0  0  0  0  0  0  0  0
    2.0570    0.7918   -0.6701 O   0  5  0  0  0  0  0  0  0  0  0  0
   -1.3373   -0.6234   -1.0366 O   0  5  0  0  0  0  0  0  0  0  0  0
    3.1690   -1.1238    0.2438 C   0  0  0  0  0  0  0  0  0  0  0  0
    3.1803    0.2020   -0.3036 C   0  0  0  0  0  0  0  0  0  0  0  0
    4.4110    0.8947   -0.4029 C   0  0  0  0  0  0  0  0  0  0  0  0
    4.4007    1.9115   -0.8192 H   0  0  0  0  0  0  0  0  0  0  0  0
    5.6013    0.2962    0.0151 C   0  0  0  0  0  0  0  0  0  0  0  0
    6.5632    0.8230   -0.0651 H   0  0  0  0  0  0  0  0  0  0  0  0
    5.5777   -1.0054    0.5498 C   0  0  0  0  0  0  0  0  0  0  0  0
    4.3871   -1.7114    0.6747 C   0  0  0  0  0  0  0  0  0  0  0  0
    4.3982   -2.7255    1.1000 H   0  0  0  0  0  0  0  0  0  0  0  0
    1.9338   -1.8359    0.4235 C   0  0  0  0  0  3  0  0  0  0  0  0
    1.9396   -2.7823    0.9951 H   0  0  0  0  0  0  0  0  0  0  0  0
   -1.3956   -1.6951   -0.2970 C   0  0  0  0  0  0  0  0  0  0  0  0
   -2.7026   -2.3526   -0.1033 C   0  0  0  0  0  0  0  0  0  0  0  0
   -3.8684   -1.8019   -0.6813 C   0  0  0  0  0  0  0  0  0  0  0  0
   -3.7826   -0.8805   -1.2823 H   0  0  0  0  0  0  0  0  0  0  0  0
   -5.1945   -3.4599    0.1884 C   0  0  0  0  0  0  0  0  0  0  0  0
   -6.2098   -3.8846    0.2887 H   0  0  0  0  0  0  0  0  0  0  0  0
   -4.1017   -4.0936    0.8085 C   0  0  0  0  0  0  0  0  0  0  0  0
   -4.2509   -5.0131    1.3941 H   0  0  0  0  0  0  0  0  0  0  0  0
   -2.8315   -3.5304    0.6610 C   0  0  0  0  0  0  0  0  0  0  0  0
   -1.9350   -3.9736    1.1183 H   0  0  0  0  0  0  0  0  0  0  0  0
  2  3  1  0  0  0  0
  2 16  1  0  0  0  0
  4 22  1  0  0  0  0
  5  8  1  0  0  0  0
  6 18  1  0  0  0  0
  7 16  1  0  0  0  0
  7 14  1  0  0  0  0
  8  7  2  0  0  0  0
  9  8  1  0  0  0  0
  9 11  2  0  0  0  0
 10  9  1  0  0  0  0
 11 13  1  0  0  0  0
 12 11  1  0  0  0  0
 13 14  2  0  0  0  0
 13  1  1  0  0  0  0
 14 15  1  0  0  0  0
 16 17  1  0  0  0  0
 18 19  1  0  0  0  0
 18  3  2  0  0  0  0
 19 26  2  0  0  0  0
 20  4  2  0  0  0  0
 20 19  1  0  0  0  0
 21 20  1  0  0  0  0
 22 23  1  0  0  0  0
 22 24  2  0  0  0  0
 24 25  1  0  0  0  0
 26 24  1  0  0  0  0
 26 27  1  0  0  0  0
M  CHG  2   5  -1   6  -1
M  END
