3,6,7
 OpenBabel05122313063D

 27 28  0  0  0  0  0  0  0  0999 V2000
   -3.9912    1.8785   -0.7074 Br  0  0  0  0  0  0  0  0  0  0  0  0
   -5.8876   -3.0458    1.0949 Cl  0  0  0  0  0  0  0  0  0  0  0  0
    0.2677   -1.6941   -0.1228 N   0  0  0  0  0  2  0  0  0  0  0  0
    1.4602   -2.3079    0.1105 N   0  0  0  0  0  0  0  0  0  0  0  0
    5.4126   -3.7116    0.4802 N   0  0  0  0  0  0  0  0  0  0  0  0
   -1.3634    0.3648   -0.5304 O   0  5  0  0  0  0  0  0  0  0  0  0
    2.1992   -0.4777   -1.0647 O   0  5  0  0  0  0  0  0  0  0  0  0
   -2.1492   -1.7659    0.2292 C   0  0  0  0  0  0  0  0  0  0  0  0
   -2.3643   -0.4116   -0.1900 C   0  0  0  0  0  0  0  0  0  0  0  0
   -3.6982    0.0840   -0.1796 C   0  0  0  0  0  0  0  0  0  0  0  0
   -4.7729   -0.7204    0.2092 C   0  0  0  0  0  0  0  0  0  0  0  0
   -5.7945   -0.3178    0.2012 H   0  0  0  0  0  0  0  0  0  0  0  0
   -4.5379   -2.0514    0.6125 C   0  0  0  0  0  0  0  0  0  0  0  0
   -3.2444   -2.5708    0.6318 C   0  0  0  0  0  0  0  0  0  0  0  0
   -3.0715   -3.6071    0.9549 H   0  0  0  0  0  0  0  0  0  0  0  0
   -0.8153   -2.2988    0.3121 C   0  0  0  0  0  3  0  0  0  0  0  0
   -0.6652   -3.2854    0.7876 H   0  0  0  0  0  0  0  0  0  0  0  0
    2.4347   -1.5962   -0.4353 C   0  0  0  0  0  0  0  0  0  0  0  0
    3.8306   -2.0610   -0.3277 C   0  0  0  0  0  0  0  0  0  0  0  0
    4.8765   -1.3100   -0.8990 C   0  0  0  0  0  0  0  0  0  0  0  0
    4.6398   -0.3773   -1.4315 H   0  0  0  0  0  0  0  0  0  0  0  0
    6.1867   -1.7825   -0.7685 C   0  0  0  0  0  0  0  0  0  0  0  0
    7.0352   -1.2309   -1.1999 H   0  0  0  0  0  0  0  0  0  0  0  0
    6.4001   -2.9842   -0.0717 C   0  0  0  0  0  0  0  0  0  0  0  0
    7.4243   -3.3815    0.0469 H   0  0  0  0  0  0  0  0  0  0  0  0
    4.1608   -3.2572    0.3514 C   0  0  0  0  0  0  0  0  0  0  0  0
    3.3515   -3.8554    0.8036 H   0  0  0  0  0  0  0  0  0  0  0  0
  1 10  1  0  0  0  0
  3  4  1  0  0  0  0
  3 16  1  0  0  0  0
  6  9  1  0  0  0  0
  7 18  1  0  0  0  0
  8 16  1  0  0  0  0
  8 14  1  0  0  0  0
  9 10  1  0  0  0  0
  9  8  2  0  0  0  0
 10 11  2  0  0  0  0
 11 13  1  0  0  0  0
 12 11  1  0  0  0  0
 13 14  2  0  0  0  0
 13  2  1  0  0  0  0
 14 15  1  0  0  0  0
 16 17  1  0  0  0  0
 18 19  1  0  0  0  0
 18  4  2  0  0  0  0
 19 26  2  0  0  0  0
 20 22  2  0  0  0  0
 20 19  1  0  0  0  0
 21 20  1  0  0  0  0
 22 24  1  0  0  0  0
 23 22  1  0  0  0  0
 24 25  1  0  0  0  0
 24  5  2  0  0  0  0
 26  5  1  0  0  0  0
 26 27  1  0  0  0  0
M  CHG  2   6  -1   7  -1
M  END
