1,2,6
 OpenBabel05122313063D

 25 26  0  0  0  0  0  0  0  0999 V2000
    1.6989    0.8910    0.0023 N   0  0  0  0  0  2  0  0  0  0  0  0
   -0.7262    1.6818    0.1490 O   0  5  0  0  0  0  0  0  0  0  0  0
    1.5370    2.2956    0.0317 C   0  0  0  0  0  0  0  0  0  0  0  0
    2.1830    4.6321    0.0275 C   0  0  0  0  0  0  0  0  0  0  0  0
    2.9635    5.4061   -0.0071 H   0  0  0  0  0  0  0  0  0  0  0  0
    0.7557   -1.6897   -0.0225 O   0  5  0  0  0  0  0  0  0  0  0  0
    3.1087   -1.1028   -0.1122 C   0  0  0  0  0  0  0  0  0  0  0  0
    3.6446   -3.8733   -0.2312 C   0  0  0  0  0  0  0  0  0  0  0  0
    3.8504   -4.9541   -0.2794 H   0  0  0  0  0  0  0  0  0  0  0  0
    2.3276   -3.4329   -0.1588 C   0  0  0  0  0  0  0  0  0  0  0  0
    1.4861   -4.1412   -0.1528 H   0  0  0  0  0  0  0  0  0  0  0  0
    4.4460   -1.5919   -0.1860 C   0  0  0  0  0  3  0  0  0  0  0  0
    5.2681   -0.8583   -0.1965 H   0  0  0  0  0  0  0  0  0  0  0  0
   -0.1853    4.0327    0.1570 C   0  0  0  0  0  0  0  0  0  0  0  0
   -1.2482    4.3068    0.2251 H   0  0  0  0  0  0  0  0  0  0  0  0
    2.0140   -2.0422   -0.0950 C   0  0  0  0  0  0  0  0  0  0  0  0
    0.1631    2.6607    0.1159 C   0  0  0  0  0  0  0  0  0  0  0  0
    4.7211   -2.9513   -0.2445 C   0  0  0  0  0  0  0  0  0  0  0  0
    5.7591   -3.3090   -0.3018 H   0  0  0  0  0  0  0  0  0  0  0  0
    2.5435    3.2798   -0.0136 C   0  0  0  0  0  0  0  0  0  0  0  0
    3.6055    3.0022   -0.0822 H   0  0  0  0  0  0  0  0  0  0  0  0
    0.8226    5.0008    0.1127 C   0  0  0  0  0  0  0  0  0  0  0  0
    0.5497    6.0670    0.1448 H   0  0  0  0  0  0  0  0  0  0  0  0
    2.8801    0.3037   -0.0584 C   0  0  0  0  0  0  0  0  0  0  0  0
    3.7764    0.9500   -0.0742 H   0  0  0  0  0  0  0  0  0  0  0  0
  1  3  1  0  0  0  0
  3 17  1  0  0  0  0
  4 22  2  0  0  0  0
  5  4  1  0  0  0  0
  7 16  1  0  0  0  0
  7 24  2  0  0  0  0
  8 10  1  0  0  0  0
  9  8  1  0  0  0  0
 10 11  1  0  0  0  0
 10 16  2  0  0  0  0
 12  7  1  0  0  0  0
 13 12  1  0  0  0  0
 14 15  1  0  0  0  0
 16  6  1  0  0  0  0
 17  2  1  0  0  0  0
 17 14  2  0  0  0  0
 18  8  2  0  0  0  0
 18 12  1  0  0  0  0
 19 18  1  0  0  0  0
 20  4  1  0  0  0  0
 20  3  2  0  0  0  0
 21 20  1  0  0  0  0
 22 23  1  0  0  0  0
 22 14  1  0  0  0  0
 24  1  1  0  0  0  0
 25 24  1  0  0  0  0
M  CHG  2   2  -1   6  -1
M  END
