1,2,4
 OpenBabel05122313063D

 70 71  0  0  0  0  0  0  0  0999 V2000
    1.9147   -0.6734    0.6492 O   0  5  0  0  0  0  0  0  0  0  0  0
   -1.7399   -0.5836    0.1250 O   0  5  0  0  0  0  0  0  0  0  0  0
   -0.2619   -1.5230    2.2439 O   0  0  0  0  0  0  0  0  0  0  0  0
   -0.0792    1.1338    1.3193 N   0  0  0  0  0  0  0  0  0  0  0  0
    2.7114    0.3509    0.2822 C   0  0  0  0  0  0  0  0  0  0  0  0
    3.8944    0.1786   -0.4956 C   0  0  0  0  0  0  0  0  0  0  0  0
    4.5936    1.3480   -0.8518 C   0  0  0  0  0  0  0  0  0  0  0  0
    5.5021    1.2530   -1.4632 H   0  0  0  0  0  0  0  0  0  0  0  0
    4.1981    2.6481   -0.4752 C   0  0  0  0  0  0  0  0  0  0  0  0
    3.0638    2.7756    0.3429 C   0  0  0  0  0  0  0  0  0  0  0  0
    2.7476    3.7703    0.6997 H   0  0  0  0  0  0  0  0  0  0  0  0
    2.3355    1.6427    0.7292 C   0  0  0  0  0  0  0  0  0  0  0  0
    1.2357    1.6936    1.7481 C   0  0  0  0  0  0  0  0  0  0  0  0
    1.0804    2.7379    2.1044 H   0  0  0  0  0  0  0  0  0  0  0  0
    1.5648    1.0945    2.6199 H   0  0  0  0  0  0  0  0  0  0  0  0
   -0.7652    2.1315    0.4612 C   0  0  0  0  0  0  0  0  0  0  0  0
   -0.0878    2.3028   -0.4027 H   0  0  0  0  0  0  0  0  0  0  0  0
   -0.8249    3.0978    1.0172 H   0  0  0  0  0  0  0  0  0  0  0  0
   -2.1568    1.7680   -0.0027 C   0  0  0  0  0  0  0  0  0  0  0  0
   -3.0584    2.8118   -0.2787 C   0  0  0  0  0  0  0  0  0  0  0  0
   -2.7223    3.8539   -0.1438 H   0  0  0  0  0  0  0  0  0  0  0  0
   -4.3655    2.5605   -0.7137 C   0  0  0  0  0  0  0  0  0  0  0  0
   -4.7682    1.2131   -0.8324 C   0  0  0  0  0  0  0  0  0  0  0  0
   -5.8016    1.0147   -1.1500 H   0  0  0  0  0  0  0  0  0  0  0  0
   -3.9224    0.1286   -0.5577 C   0  0  0  0  0  0  0  0  0  0  0  0
   -2.5754    0.4206   -0.1607 C   0  0  0  0  0  0  0  0  0  0  0  0
   -0.8781    0.7759    2.5154 C   0  0  0  0  0  0  0  0  0  0  0  0
   -1.9234    0.6140    2.1976 H   0  0  0  0  0  0  0  0  0  0  0  0
   -0.8794    1.6161    3.2491 H   0  0  0  0  0  0  0  0  0  0  0  0
   -0.3484   -0.4773    3.1982 C   0  0  0  0  0  0  0  0  0  0  0  0
    0.6553   -0.3044    3.6540 H   0  0  0  0  0  0  0  0  0  0  0  0
   -1.0381   -0.7622    4.0270 H   0  0  0  0  0  0  0  0  0  0  0  0
    0.4334   -2.6714    2.7112 C   0  0  0  0  0  0  0  0  0  0  0  0
    1.4808   -2.4154    2.9887 H   0  0  0  0  0  0  0  0  0  0  0  0
    0.4425   -3.3905    1.8727 H   0  0  0  0  0  0  0  0  0  0  0  0
   -0.0873   -3.1138    3.5894 H   0  0  0  0  0  0  0  0  0  0  0  0
    4.3979   -1.2210   -0.8921 C   0  0  0  0  0  0  0  0  0  0  0  0
    3.3595   -1.9150   -1.8000 C   0  0  0  0  0  0  0  0  0  0  0  0
    3.7370   -2.9081   -2.1230 H   0  0  0  0  0  0  0  0  0  0  0  0
    3.1542   -1.3097   -2.7056 H   0  0  0  0  0  0  0  0  0  0  0  0
    2.4101   -2.0631   -1.2599 H   0  0  0  0  0  0  0  0  0  0  0  0
    5.7353   -1.1612   -1.6511 C   0  0  0  0  0  0  0  0  0  0  0  0
    6.0676   -2.1913   -1.8913 H   0  0  0  0  0  0  0  0  0  0  0  0
    6.5354   -0.6836   -1.0498 H   0  0  0  0  0  0  0  0  0  0  0  0
    5.6456   -0.6102   -2.6093 H   0  0  0  0  0  0  0  0  0  0  0  0
    4.6097   -2.0638    0.3877 C   0  0  0  0  0  0  0  0  0  0  0  0
    3.6665   -2.1552    0.9594 H   0  0  0  0  0  0  0  0  0  0  0  0
    5.3744   -1.5989    1.0431 H   0  0  0  0  0  0  0  0  0  0  0  0
    4.9591   -3.0835    0.1222 H   0  0  0  0  0  0  0  0  0  0  0  0
    4.9697    3.8556   -0.9476 C   0  0  0  0  0  0  0  0  0  0  0  0
    4.7529    4.7478   -0.3275 H   0  0  0  0  0  0  0  0  0  0  0  0
    4.7126    4.1155   -1.9976 H   0  0  0  0  0  0  0  0  0  0  0  0
    6.0642    3.6788   -0.9203 H   0  0  0  0  0  0  0  0  0  0  0  0
   -5.3213    3.6804   -1.0422 C   0  0  0  0  0  0  0  0  0  0  0  0
   -4.9133    4.6663   -0.7445 H   0  0  0  0  0  0  0  0  0  0  0  0
   -6.2979    3.5484   -0.5316 H   0  0  0  0  0  0  0  0  0  0  0  0
   -5.5348    3.7251   -2.1319 H   0  0  0  0  0  0  0  0  0  0  0  0
   -4.4046   -1.3297   -0.6729 C   0  0  0  0  0  0  0  0  0  0  0  0
   -4.2389   -2.0446    0.6903 C   0  0  0  0  0  0  0  0  0  0  0  0
   -4.8515   -1.5439    1.4683 H   0  0  0  0  0  0  0  0  0  0  0  0
   -3.1830   -2.0444    1.0190 H   0  0  0  0  0  0  0  0  0  0  0  0
   -4.5833   -3.0971    0.6119 H   0  0  0  0  0  0  0  0  0  0  0  0
   -5.8886   -1.4167   -1.0723 C   0  0  0  0  0  0  0  0  0  0  0  0
   -6.0816   -0.9582   -2.0632 H   0  0  0  0  0  0  0  0  0  0  0  0
   -6.5493   -0.9265   -0.3287 H   0  0  0  0  0  0  0  0  0  0  0  0
   -6.1900   -2.4819   -1.1354 H   0  0  0  0  0  0  0  0  0  0  0  0
   -3.5770   -2.0584   -1.7568 C   0  0  0  0  0  0  0  0  0  0  0  0
   -3.9022   -3.1166   -1.8426 H   0  0  0  0  0  0  0  0  0  0  0  0
   -2.5020   -2.0410   -1.5076 H   0  0  0  0  0  0  0  0  0  0  0  0
   -3.7139   -1.5750   -2.7453 H   0  0  0  0  0  0  0  0  0  0  0  0
  3 33  1  0  0  0  0
  3 30  1  0  0  0  0
  4 13  1  0  0  0  0
  4 27  1  0  0  0  0
  5  1  1  0  0  0  0
  5 12  1  0  0  0  0
  6  5  2  0  0  0  0
  7  6  1  0  0  0  0
  7  9  2  0  0  0  0
  8  7  1  0  0  0  0
  9 10  1  0  0  0  0
 10 11  1  0  0  0  0
 10 12  2  0  0  0  0
 12 13  1  0  0  0  0
 13 14  1  0  0  0  0
 13 15  1  0  0  0  0
 16 18  1  0  0  0  0
 16  4  1  0  0  0  0
 17 16  1  0  0  0  0
 19 16  1  0  0  0  0
 20 21  1  0  0  0  0
 20 19  2  0  0  0  0
 22 20  1  0  0  0  0
 23 22  2  0  0  0  0
 23 25  1  0  0  0  0
 24 23  1  0  0  0  0
 25 26  2  0  0  0  0
 26 19  1  0  0  0  0
 26  2  1  0  0  0  0
 27 30  1  0  0  0  0
 27 29  1  0  0  0  0
 28 27  1  0  0  0  0
 30 31  1  0  0  0  0
 30 32  1  0  0  0  0
 33 34  1  0  0  0  0
 33 36  1  0  0  0  0
 35 33  1  0  0  0  0
 37  6  1  0  0  0  0
 37 46  1  0  0  0  0
 38 41  1  0  0  0  0
 38 37  1  0  0  0  0
 39 38  1  0  0  0  0
 40 38  1  0  0  0  0
 42 44  1  0  0  0  0
 42 37  1  0  0  0  0
 43 42  1  0  0  0  0
 45 42  1  0  0  0  0
 46 47  1  0  0  0  0
 46 48  1  0  0  0  0
 49 46  1  0  0  0  0
 50 53  1  0  0  0  0
 50  9  1  0  0  0  0
 50 51  1  0  0  0  0
 52 50  1  0  0  0  0
 54 55  1  0  0  0  0
 54 22  1  0  0  0  0
 54 56  1  0  0  0  0
 57 54  1  0  0  0  0
 58 25  1  0  0  0  0
 58 59  1  0  0  0  0
 59 61  1  0  0  0  0
 59 60  1  0  0  0  0
 62 59  1  0  0  0  0
 63 58  1  0  0  0  0
 63 65  1  0  0  0  0
 64 63  1  0  0  0  0
 66 63  1  0  0  0  0
 67 69  1  0  0  0  0
 67 58  1  0  0  0  0
 68 67  1  0  0  0  0
 70 67  1  0  0  0  0
M  CHG  2   1  -1   2  -1
M  END
