1,3,4
 OpenBabel05122313063D

 35 36  0  0  0  0  0  0  0  0999 V2000
   -0.8340   -0.7232   -0.0119 N   0  0  0  0  0  2  0  0  0  0  0  0
    0.4706   -1.1278    0.0809 N   0  0  0  0  0  0  0  0  0  0  0  0
   -2.9615    1.0108    0.0514 O   0  5  0  0  0  0  0  0  0  0  0  0
    0.8325    1.1174   -0.3529 O   0  5  0  0  0  0  0  0  0  0  0  0
   -7.3052   -0.7452    0.0357 O   0  0  0  0  0  0  0  0  0  0  0  0
   -3.1713   -1.4024    0.0631 C   0  0  0  0  0  0  0  0  0  0  0  0
   -3.7301   -0.0760    0.0360 C   0  0  0  0  0  0  0  0  0  0  0  0
   -5.1224    0.0906    0.0318 C   0  0  0  0  0  0  0  0  0  0  0  0
   -5.5443    1.1039    0.0154 H   0  0  0  0  0  0  0  0  0  0  0  0
   -5.9823   -1.0248    0.0482 C   0  0  0  0  0  0  0  0  0  0  0  0
   -5.4483   -2.3394    0.0807 C   0  0  0  0  0  0  0  0  0  0  0  0
   -6.1017   -3.2202    0.0959 H   0  0  0  0  0  0  0  0  0  0  0  0
   -4.0662   -2.5023    0.0924 C   0  0  0  0  0  0  0  0  0  0  0  0
   -3.6430   -3.5187    0.1176 H   0  0  0  0  0  0  0  0  0  0  0  0
   -8.2355   -1.8165    0.0454 C   0  0  0  0  0  0  0  0  0  0  0  0
   -8.1203   -2.4695   -0.8474 H   0  0  0  0  0  0  0  0  0  0  0  0
   -9.2393   -1.3544    0.0271 H   0  0  0  0  0  0  0  0  0  0  0  0
   -8.1388   -2.4376    0.9630 H   0  0  0  0  0  0  0  0  0  0  0  0
   -1.7601   -1.6512    0.0898 C   0  0  0  0  0  3  0  0  0  0  0  0
   -1.4087   -2.6951    0.2008 H   0  0  0  0  0  0  0  0  0  0  0  0
    1.2767   -0.1043   -0.1289 C   0  0  0  0  0  0  0  0  0  0  0  0
    2.7400   -0.3008   -0.0927 C   0  0  0  0  0  0  0  0  0  0  0  0
    3.5983    0.7975   -0.3103 C   0  0  0  0  0  0  0  0  0  0  0  0
    3.1568    1.7837   -0.5110 H   0  0  0  0  0  0  0  0  0  0  0  0
    4.9862    0.6243   -0.2706 C   0  0  0  0  0  0  0  0  0  0  0  0
    5.6574    1.4792   -0.4342 H   0  0  0  0  0  0  0  0  0  0  0  0
    5.5278   -0.6467   -0.0135 C   0  0  0  0  0  0  0  0  0  0  0  0
    4.6756   -1.7465    0.2058 C   0  0  0  0  0  0  0  0  0  0  0  0
    5.1069   -2.7360    0.4147 H   0  0  0  0  0  0  0  0  0  0  0  0
    3.2905   -1.5760    0.1650 C   0  0  0  0  0  0  0  0  0  0  0  0
    2.6084   -2.4209    0.3329 H   0  0  0  0  0  0  0  0  0  0  0  0
    7.0244   -0.8521   -0.0240 C   0  0  0  0  0  0  0  0  0  0  0  0
    7.4567   -1.2643   -1.2423 F   0  0  0  0  0  0  0  0  0  0  0  0
    7.6936    0.2869    0.2721 F   0  0  0  0  0  0  0  0  0  0  0  0
    7.4054   -1.7965    0.8705 F   0  0  0  0  0  0  0  0  0  0  0  0
  1  2  1  0  0  0  0
  1 19  1  0  0  0  0
  4 21  1  0  0  0  0
  5 15  1  0  0  0  0
  5 10  1  0  0  0  0
  6 19  1  0  0  0  0
  6 13  1  0  0  0  0
  7  3  1  0  0  0  0
  7  6  2  0  0  0  0
  8  7  1  0  0  0  0
  8 10  2  0  0  0  0
  9  8  1  0  0  0  0
 10 11  1  0  0  0  0
 11 13  2  0  0  0  0
 11 12  1  0  0  0  0
 13 14  1  0  0  0  0
 15 18  1  0  0  0  0
 16 15  1  0  0  0  0
 17 15  1  0  0  0  0
 19 20  1  0  0  0  0
 21 22  1  0  0  0  0
 21  2  2  0  0  0  0
 22 30  1  0  0  0  0
 23 25  1  0  0  0  0
 23 22  2  0  0  0  0
 24 23  1  0  0  0  0
 25 27  2  0  0  0  0
 26 25  1  0  0  0  0
 27 28  1  0  0  0  0
 28 29  1  0  0  0  0
 30 28  2  0  0  0  0
 30 31  1  0  0  0  0
 32 27  1  0  0  0  0
 32 34  1  0  0  0  0
 32 35  1  0  0  0  0
 33 32  1  0  0  0  0
M  CHG  2   3  -1   4  -1
M  END
