1,2,3
 OpenBabel05122313063D

 22 22  0  0  0  0  0  0  0  0999 V2000
    1.5697    0.5284    0.0004 O   0  5  0  0  0  0  0  0  0  0  0  0
   -2.1301    0.5310    0.0004 O   0  5  0  0  0  0  0  0  0  0  0  0
   -0.4716   -1.3038    0.0001 N   0  0  0  0  0  2  0  0  0  0  0  0
   -1.7761   -1.7496    0.0000 N   0  0  0  0  0  0  0  0  0  0  0  0
   -4.9615   -3.3493   -0.0013 N   0  0  0  0  0  0  0  0  0  0  0  0
    2.3685   -0.5226    0.0003 C   0  0  0  0  0  0  0  0  0  0  0  0
    3.7743   -0.3063    0.0006 C   0  0  0  0  0  0  0  0  0  0  0  0
    4.1338    0.7337    0.0010 H   0  0  0  0  0  0  0  0  0  0  0  0
    4.6707   -1.3727    0.0003 C   0  0  0  0  0  0  0  0  0  0  0  0
    5.7524   -1.1677    0.0005 H   0  0  0  0  0  0  0  0  0  0  0  0
    4.2062   -2.7080   -0.0003 C   0  0  0  0  0  0  0  0  0  0  0  0
    4.9182   -3.5456   -0.0005 H   0  0  0  0  0  0  0  0  0  0  0  0
    2.8368   -2.9470   -0.0005 C   0  0  0  0  0  3  0  0  0  0  0  0
    2.4541   -3.9798   -0.0009 H   0  0  0  0  0  0  0  0  0  0  0  0
    1.8918   -1.8823   -0.0002 C   0  0  0  0  0  0  0  0  0  0  0  0
    0.4950   -2.1972   -0.0004 C   0  0  0  0  0  0  0  0  0  0  0  0
    0.1738   -3.2539   -0.0008 H   0  0  0  0  0  0  0  0  0  0  0  0
   -2.5648   -0.7020    0.0003 C   0  0  0  0  0  0  0  0  0  0  0  0
   -4.0694   -0.8753    0.0004 C   0  0  0  0  0  0  0  0  0  0  0  0
   -4.4829   -0.3475    0.8871 H   0  0  0  0  0  0  0  0  0  0  0  0
   -4.4832   -0.3462   -0.8854 H   0  0  0  0  0  0  0  0  0  0  0  0
   -4.5351   -2.2595   -0.0006 C   0  0  0  0  0  0  0  0  0  0  0  0
  4  3  1  0  0  0  0
  4 18  2  0  0  0  0
  5 22  3  0  0  0  0
  6  1  1  0  0  0  0
  6  7  2  0  0  0  0
  7  8  1  0  0  0  0
  9 10  1  0  0  0  0
  9  7  1  0  0  0  0
 11  9  2  0  0  0  0
 12 11  1  0  0  0  0
 13 11  1  0  0  0  0
 13 15  1  0  0  0  0
 14 13  1  0  0  0  0
 15  6  1  0  0  0  0
 16 15  2  0  0  0  0
 16  3  1  0  0  0  0
 17 16  1  0  0  0  0
 18 19  1  0  0  0  0
 18  2  1  0  0  0  0
 19 20  1  0  0  0  0
 21 19  1  0  0  0  0
 22 19  1  0  0  0  0
M  CHG  2   1  -1   2  -1
M  END
