1,2,3
 OpenBabel05122313063D

 39 41  0  0  1  0  0  0  0  0999 V2000
    1.1943    1.6767   -0.9537 O   0  5  0  0  0  0  0  0  0  0  0  0
   -2.1159    0.8264   -0.0633 O   0  5  0  0  0  0  0  0  0  0  0  0
   -0.0294   -0.4670   -0.1677 N   0  0  0  0  0  2  0  0  0  0  0  0
   -1.1443   -1.2376   -0.2233 N   0  0  0  0  0  0  0  0  0  0  0  0
   -2.7497   -3.3695   -0.2295 N   0  0  0  0  0  0  0  0  0  0  0  0
   -2.9241   -4.3709   -0.2215 H   0  0  0  0  0  0  0  0  0  0  0  0
   -1.7994   -2.9649   -0.2397 H   0  0  0  0  0  0  0  0  0  0  0  0
    2.3415    1.0465   -0.7375 C   0  0  0  0  0  0  0  0  0  0  0  0
    3.5440    1.7412   -1.0699 C   0  0  0  0  0  0  0  0  0  0  0  0
    3.4426    2.7493   -1.4957 H   0  0  0  0  0  0  0  0  0  0  0  0
    4.7717    1.1540   -0.8564 C   0  0  0  0  0  0  0  0  0  0  0  0
    5.6963    1.6900   -1.1213 H   0  0  0  0  0  0  0  0  0  0  0  0
    4.8755   -0.1324   -0.2432 C   0  0  0  0  0  0  0  0  0  0  0  0
    6.1468   -0.6831    0.0811 C   0  0  0  0  0  0  0  0  0  0  0  0
    7.0482   -0.1170   -0.2012 H   0  0  0  0  0  0  0  0  0  0  0  0
    6.2560   -1.8887    0.7597 C   0  0  0  0  0  0  0  0  0  0  0  0
    7.2449   -2.3005    1.0103 H   0  0  0  0  0  0  0  0  0  0  0  0
    5.0793   -2.5649    1.1619 C   0  0  0  0  0  0  0  0  0  0  0  0
    5.1544   -3.4919    1.7505 H   0  0  0  0  0  0  0  0  0  0  0  0
    3.8240   -2.0592    0.8408 C   0  0  0  0  0  0  0  0  0  0  0  0
    2.9349   -2.5814    1.2153 H   0  0  0  0  0  0  0  0  0  0  0  0
    3.6725   -0.8547    0.0927 C   0  0  0  0  0  0  0  0  0  0  0  0
    2.3809   -0.2938   -0.2608 C   0  0  0  0  0  0  0  0  0  0  0  0
    1.1488   -2.5582   -0.5282 C   0  0  0  0  0  0  0  0  0  0  0  0
    0.8028   -3.1294    0.3592 H   0  0  0  0  0  0  0  0  0  0  0  0
    2.1427   -2.9251   -0.8326 H   0  0  0  0  0  0  0  0  0  0  0  0
    0.4137   -2.7663   -1.3320 H   0  0  0  0  0  0  0  0  0  0  0  0
    1.1492   -1.0739   -0.2655 C   0  0  2  0  0  3  0  0  0  0  0  0
   -2.2378   -0.4804   -0.1165 C   0  0  0  0  0  0  0  0  0  0  0  0
   -3.5727   -1.0739   -0.0677 C   0  0  0  0  0  0  0  0  0  0  0  0
   -3.7871   -2.4986   -0.1186 C   0  0  0  0  0  0  0  0  0  0  0  0
   -5.1288   -2.9704   -0.0537 C   0  0  0  0  0  0  0  0  0  0  0  0
   -5.3041   -4.0572   -0.0905 H   0  0  0  0  0  0  0  0  0  0  0  0
   -6.2029   -2.0915    0.0534 C   0  0  0  0  0  0  0  0  0  0  0  0
   -7.2256   -2.4968    0.1007 H   0  0  0  0  0  0  0  0  0  0  0  0
   -5.9935   -0.6960    0.1014 C   0  0  0  0  0  0  0  0  0  0  0  0
   -6.8446   -0.0053    0.1857 H   0  0  0  0  0  0  0  0  0  0  0  0
   -4.6904   -0.2094    0.0403 C   0  0  0  0  0  0  0  0  0  0  0  0
   -4.4883    0.8702    0.0769 H   0  0  0  0  0  0  0  0  0  0  0  0
  1  8  1  0  0  0  0
  4  3  1  0  0  0  0
  4 29  2  0  0  0  0
  5  6  1  0  0  0  0
  5 31  1  0  0  0  0
  7  5  1  0  0  0  0
  8 23  1  0  0  0  0
  9 11  1  0  0  0  0
  9  8  2  0  0  0  0
 10  9  1  0  0  0  0
 11 13  2  0  0  0  0
 12 11  1  0  0  0  0
 13 14  1  0  0  0  0
 13 22  1  0  0  0  0
 14 16  2  0  0  0  0
 15 14  1  0  0  0  0
 16 17  1  0  0  0  0
 16 18  1  0  0  0  0
 18 19  1  0  0  0  0
 20 18  2  0  0  0  0
 20 21  1  0  0  0  0
 22 20  1  0  0  0  0
 23 22  2  0  0  0  0
 24 28  1  0  0  0  0
 24 25  1  0  0  0  0
 26 24  1  0  0  0  0
 27 24  1  0  0  0  0
 28 23  1  0  0  0  0
 28  3  1  6  0  0  0
 29 30  1  0  0  0  0
 29  2  1  0  0  0  0
 30 38  1  0  0  0  0
 31 30  2  0  0  0  0
 31 32  1  0  0  0  0
 32 34  2  0  0  0  0
 33 32  1  0  0  0  0
 34 35  1  0  0  0  0
 34 36  1  0  0  0  0
 36 37  1  0  0  0  0
 38 39  1  0  0  0  0
 38 36  2  0  0  0  0
M  CHG  2   1  -1   2  -1
M  END
