1,2,4
 OpenBabel05122313063D

 35 37  0  0  0  0  0  0  0  0999 V2000
   -1.2930    1.8364   -0.1529 O   0  5  0  0  0  0  0  0  0  0  0  0
    2.1202    0.9022    0.3179 O   0  5  0  0  0  0  0  0  0  0  0  0
    2.6634   -3.2065   -0.4364 O   0  0  0  0  0  0  0  0  0  0  0  0
    0.0448   -0.3882    0.1032 N   0  0  0  0  0  2  0  0  0  0  0  0
    1.1652   -1.1405   -0.0478 N   0  0  0  0  0  0  0  0  0  0  0  0
   -2.4053    1.1233   -0.1526 C   0  0  0  0  0  0  0  0  0  0  0  0
   -3.6438    1.8129   -0.3247 C   0  0  0  0  0  0  0  0  0  0  0  0
   -3.6069    2.9067   -0.4235 H   0  0  0  0  0  0  0  0  0  0  0  0
   -4.8322    1.1143   -0.3545 C   0  0  0  0  0  0  0  0  0  0  0  0
   -5.7838    1.6544   -0.4788 H   0  0  0  0  0  0  0  0  0  0  0  0
   -4.8700   -0.3092   -0.2177 C   0  0  0  0  0  0  0  0  0  0  0  0
   -6.1052   -1.0147   -0.2332 C   0  0  0  0  0  0  0  0  0  0  0  0
   -7.0359   -0.4399   -0.3589 H   0  0  0  0  0  0  0  0  0  0  0  0
   -6.1426   -2.3950   -0.0904 C   0  0  0  0  0  0  0  0  0  0  0  0
   -7.1034   -2.9304   -0.1034 H   0  0  0  0  0  0  0  0  0  0  0  0
   -4.9330   -3.1103    0.0810 C   0  0  0  0  0  0  0  0  0  0  0  0
   -4.9567   -4.2033    0.2064 H   0  0  0  0  0  0  0  0  0  0  0  0
   -3.7114   -2.4453    0.1016 C   0  0  0  0  0  0  0  0  0  0  0  0
   -2.7953   -3.0316    0.2594 H   0  0  0  0  0  0  0  0  0  0  0  0
   -3.6360   -1.0335   -0.0555 C   0  0  0  0  0  0  0  0  0  0  0  0
   -2.3839   -0.2972   -0.0430 C   0  0  0  0  0  0  0  0  0  0  0  0
   -1.1265   -0.9777   -0.0400 C   0  0  0  0  0  3  0  0  0  0  0  0
   -1.0956   -2.0670   -0.2129 H   0  0  0  0  0  0  0  0  0  0  0  0
    2.2523   -0.3844    0.1036 C   0  0  0  0  0  0  0  0  0  0  0  0
    3.5745   -0.9938    0.0086 C   0  0  0  0  0  0  0  0  0  0  0  0
    3.7119   -2.3963   -0.2626 C   0  0  0  0  0  0  0  0  0  0  0  0
    5.0134   -2.9432   -0.3517 C   0  0  0  0  0  0  0  0  0  0  0  0
    5.1026   -4.0188   -0.5610 H   0  0  0  0  0  0  0  0  0  0  0  0
    6.1377   -2.1358   -0.1757 C   0  0  0  0  0  0  0  0  0  0  0  0
    7.1397   -2.5863   -0.2483 H   0  0  0  0  0  0  0  0  0  0  0  0
    6.0065   -0.7563    0.0946 C   0  0  0  0  0  0  0  0  0  0  0  0
    6.8989   -0.1297    0.2354 H   0  0  0  0  0  0  0  0  0  0  0  0
    4.7326   -0.1986    0.1838 C   0  0  0  0  0  0  0  0  0  0  0  0
    4.5917    0.8706    0.3982 H   0  0  0  0  0  0  0  0  0  0  0  0
    1.8314   -2.6360   -0.3350 H   0  0  0  0  0  0  0  0  0  0  0  0
  1  6  1  0  0  0  0
  3 35  1  0  0  0  0
  3 26  1  0  0  0  0
  5  4  1  0  0  0  0
  5 24  2  0  0  0  0
  6 21  1  0  0  0  0
  7  6  2  0  0  0  0
  8  7  1  0  0  0  0
  9  7  1  0  0  0  0
  9 11  2  0  0  0  0
 10  9  1  0  0  0  0
 11 20  1  0  0  0  0
 12 11  1  0  0  0  0
 12 14  2  0  0  0  0
 13 12  1  0  0  0  0
 14 16  1  0  0  0  0
 15 14  1  0  0  0  0
 16 18  2  0  0  0  0
 16 17  1  0  0  0  0
 18 19  1  0  0  0  0
 20 21  2  0  0  0  0
 20 18  1  0  0  0  0
 21 22  1  0  0  0  0
 22  4  1  0  0  0  0
 23 22  1  0  0  0  0
 24  2  1  0  0  0  0
 25 24  1  0  0  0  0
 25 33  1  0  0  0  0
 26 25  2  0  0  0  0
 27 26  1  0  0  0  0
 27 29  2  0  0  0  0
 28 27  1  0  0  0  0
 29 31  1  0  0  0  0
 30 29  1  0  0  0  0
 31 33  2  0  0  0  0
 31 32  1  0  0  0  0
 33 34  1  0  0  0  0
M  CHG  2   1  -1   2  -1
M  END
