2,4,5
 OpenBabel05122313063D

 31 32  0  0  0  0  0  0  0  0999 V2000
    6.3269    1.0456   -0.0982 Cl  0  0  0  0  0  0  0  0  0  0  0  0
   -0.7348   -1.1179   -0.2174 N   0  0  0  0  0  2  0  0  0  0  0  0
    0.5201   -1.6524   -0.1825 N   0  0  0  0  0  0  0  0  0  0  0  0
   -2.6247    0.7498   -0.0214 O   0  5  0  0  0  0  0  0  0  0  0  0
    1.0583    0.5829   -0.1827 O   0  5  0  0  0  0  0  0  0  0  0  0
   -3.1284   -1.5895   -0.1546 C   0  0  0  0  0  0  0  0  0  0  0  0
   -3.5238   -0.2177   -0.0666 C   0  0  0  0  0  0  0  0  0  0  0  0
   -4.9030    0.1313   -0.0039 C   0  0  0  0  0  0  0  0  0  0  0  0
   -5.8508   -0.9009   -0.0358 C   0  0  0  0  0  0  0  0  0  0  0  0
   -6.9187   -0.6336    0.0096 H   0  0  0  0  0  0  0  0  0  0  0  0
   -5.4771   -2.2589   -0.1233 C   0  0  0  0  0  0  0  0  0  0  0  0
   -6.2486   -3.0419   -0.1470 H   0  0  0  0  0  0  0  0  0  0  0  0
   -4.1280   -2.5975   -0.1781 C   0  0  0  0  0  0  0  0  0  0  0  0
   -3.8150   -3.6512   -0.2441 H   0  0  0  0  0  0  0  0  0  0  0  0
   -5.2766    1.5834    0.0961 C   0  0  0  0  0  0  0  0  0  0  0  0
   -6.3745    1.7181    0.1150 H   0  0  0  0  0  0  0  0  0  0  0  0
   -4.8620    2.1592   -0.7573 H   0  0  0  0  0  0  0  0  0  0  0  0
   -4.8478    2.0417    1.0117 H   0  0  0  0  0  0  0  0  0  0  0  0
   -1.7418   -1.9606   -0.1806 C   0  0  0  0  0  3  0  0  0  0  0  0
   -1.4800   -3.0352   -0.1602 H   0  0  0  0  0  0  0  0  0  0  0  0
    1.4115   -0.6774   -0.1839 C   0  0  0  0  0  0  0  0  0  0  0  0
    2.8538   -1.0032   -0.1514 C   0  0  0  0  0  0  0  0  0  0  0  0
    3.7935    0.0475   -0.1455 C   0  0  0  0  0  0  0  0  0  0  0  0
    3.4437    1.0878   -0.1746 H   0  0  0  0  0  0  0  0  0  0  0  0
    5.1609   -0.2549   -0.1070 C   0  0  0  0  0  0  0  0  0  0  0  0
    5.6094   -1.5859   -0.0759 C   0  0  0  0  0  0  0  0  0  0  0  0
    6.6876   -1.7966   -0.0468 H   0  0  0  0  0  0  0  0  0  0  0  0
    4.6637   -2.6248   -0.0841 C   0  0  0  0  0  0  0  0  0  0  0  0
    5.0105   -3.6690   -0.0614 H   0  0  0  0  0  0  0  0  0  0  0  0
    3.2935   -2.3445   -0.1213 C   0  0  0  0  0  0  0  0  0  0  0  0
    2.5415   -3.1453   -0.1282 H   0  0  0  0  0  0  0  0  0  0  0  0
  2  3  1  0  0  0  0
  2 19  1  0  0  0  0
  6  7  1  0  0  0  0
  7  4  1  0  0  0  0
  7  8  2  0  0  0  0
  8 15  1  0  0  0  0
  9  8  1  0  0  0  0
  9 10  1  0  0  0  0
 11  9  2  0  0  0  0
 12 11  1  0  0  0  0
 13  6  2  0  0  0  0
 13 11  1  0  0  0  0
 14 13  1  0  0  0  0
 15 16  1  0  0  0  0
 15 18  1  0  0  0  0
 17 15  1  0  0  0  0
 19 20  1  0  0  0  0
 19  6  1  0  0  0  0
 21  5  1  0  0  0  0
 21  3  2  0  0  0  0
 21 22  1  0  0  0  0
 22 23  2  0  0  0  0
 22 30  1  0  0  0  0
 23 25  1  0  0  0  0
 24 23  1  0  0  0  0
 25  1  1  0  0  0  0
 25 26  2  0  0  0  0
 26 27  1  0  0  0  0
 28 26  1  0  0  0  0
 28 29  1  0  0  0  0
 30 28  2  0  0  0  0
 31 30  1  0  0  0  0
M  CHG  2   4  -1   5  -1
M  END
