25,26,27
 OpenBabel05122313063D

 29 30  0  0  0  0  0  0  0  0999 V2000
    4.0725   -2.4397    0.0535 C   0  0  0  0  0  0  0  0  0  0  0  0
    3.3621   -3.2746    0.1345 H   0  0  0  0  0  0  0  0  0  0  0  0
    5.4549   -2.6567    0.0407 C   0  0  0  0  0  0  0  0  0  0  0  0
    5.8471   -3.6827    0.1137 H   0  0  0  0  0  0  0  0  0  0  0  0
    6.3424   -1.5710   -0.0647 C   0  0  0  0  0  0  0  0  0  0  0  0
    7.4292   -1.7453   -0.0746 H   0  0  0  0  0  0  0  0  0  0  0  0
    5.8373   -0.2640   -0.1594 C   0  0  0  0  0  0  0  0  0  0  0  0
    6.5285    0.5884   -0.2466 H   0  0  0  0  0  0  0  0  0  0  0  0
    4.4541   -0.0408   -0.1461 C   0  0  0  0  0  0  0  0  0  0  0  0
    4.0418    0.9749   -0.2280 H   0  0  0  0  0  0  0  0  0  0  0  0
    3.5592   -1.1265   -0.0372 C   0  0  0  0  0  0  0  0  0  0  0  0
    2.1016   -0.8835   -0.0219 C   0  0  0  0  0  0  0  0  0  0  0  0
   -1.0172   -2.2822   -0.0050 C   0  0  0  0  0  0  0  0  0  0  0  0
   -0.7225   -3.3466   -0.0145 H   0  0  0  0  0  0  0  0  0  0  0  0
   -2.3984   -1.9344    0.0086 C   0  0  0  0  0  0  0  0  0  0  0  0
   -2.8324   -0.5572    0.0226 C   0  0  0  0  0  0  0  0  0  0  0  0
   -4.2296   -0.2949    0.0394 C   0  0  0  0  0  0  0  0  0  0  0  0
   -4.5518    0.7583    0.0586 H   0  0  0  0  0  0  0  0  0  0  0  0
   -5.1659   -1.3333    0.0400 C   0  0  0  0  0  0  0  0  0  0  0  0
   -4.7413   -2.6889    0.0232 C   0  0  0  0  0  0  0  0  0  0  0  0
   -5.4982   -3.4848    0.0237 H   0  0  0  0  0  0  0  0  0  0  0  0
   -3.3837   -2.9637    0.0088 C   0  0  0  0  0  3  0  0  0  0  0  0
   -3.0407   -4.0101   -0.0031 H   0  0  0  0  0  0  0  0  0  0  0  0
    1.2608   -1.8999   -0.0098 N   0  0  0  0  0  0  0  0  0  0  0  0
   -0.0216   -1.4146   -0.0026 N   0  0  0  0  0  2  0  0  0  0  0  0
    1.6763    0.3636   -0.0237 O   0  5  0  0  0  0  0  0  0  0  0  0
   -2.0099    0.4650    0.0213 O   0  5  0  0  0  0  0  0  0  0  0  0
   -6.5068   -1.1074    0.0573 O   0  0  0  0  0  0  0  0  0  0  0  0
   -6.6542   -0.1432    0.0713 H   0  0  0  0  0  0  0  0  0  0  0  0
  1  2  1  0  0  0  0
  3  1  1  0  0  0  0
  3  4  1  0  0  0  0
  5  3  2  0  0  0  0
  6  5  1  0  0  0  0
  7  9  2  0  0  0  0
  7  5  1  0  0  0  0
  8  7  1  0  0  0  0
  9 11  1  0  0  0  0
 10  9  1  0  0  0  0
 11 12  1  0  0  0  0
 11  1  2  0  0  0  0
 12 24  2  0  0  0  0
 13 25  1  0  0  0  0
 13 15  2  0  0  0  0
 14 13  1  0  0  0  0
 15 22  1  0  0  0  0
 15 16  1  0  0  0  0
 16 17  2  0  0  0  0
 17 19  1  0  0  0  0
 17 18  1  0  0  0  0
 19 28  1  0  0  0  0
 20 21  1  0  0  0  0
 20 19  2  0  0  0  0
 22 20  1  0  0  0  0
 23 22  1  0  0  0  0
 24 25  1  0  0  0  0
 26 12  1  0  0  0  0
 27 16  1  0  0  0  0
 28 29  1  0  0  0  0
M  CHG  2  26  -1  27  -1
M  END
