1,5,7
 OpenBabel05122313063D

 16 16  0  0  1  0  0  0  0  0999 V2000
   -0.0679    1.8951    0.0169 O   0  5  0  0  0  0  0  0  0  0  0  0
    1.5396    3.4771   -0.2481 O   0  0  0  0  0  0  0  0  0  0  0  0
    5.5914   -0.0096   -0.0740 O   0  0  0  0  0  0  0  0  0  0  0  0
    5.9488   -0.9169   -0.0226 H   0  0  0  0  0  0  0  0  0  0  0  0
   -0.1123   -1.9119    0.0948 O   0  5  0  0  0  0  0  0  0  0  0  0
    1.4774   -3.5332    0.1423 O   0  0  0  0  0  0  0  0  0  0  0  0
    1.4916   -0.0260    0.0056 N   0  0  0  0  0  2  0  0  0  0  0  0
    2.1537    1.1467   -0.0700 C   0  0  1  0  0  3  0  0  0  0  0  0
    3.5443    1.1750   -0.1036 C   0  0  0  0  0  0  0  0  0  0  0  0
    4.0759    2.1344   -0.1691 H   0  0  0  0  0  0  0  0  0  0  0  0
    4.2450   -0.0563   -0.0467 C   0  0  0  0  0  0  0  0  0  0  0  0
    3.5183   -1.2695    0.0314 C   0  0  0  0  0  0  0  0  0  0  0  0
    4.0058   -2.2564    0.0737 H   0  0  0  0  0  0  0  0  0  0  0  0
    2.1266   -1.2120    0.0543 C   0  0  0  0  0  0  0  0  0  0  0  0
    1.1949    2.3165   -0.1153 C   0  0  0  0  0  0  0  0  0  0  0  0
    1.1404   -2.3604    0.1100 C   0  0  0  0  0  0  0  0  0  0  0  0
  2 15  2  0  0  0  0
  3 11  1  0  0  0  0
  3  4  1  0  0  0  0
  5 16  1  0  0  0  0
  7 14  1  0  0  0  0
  8 15  1  6  0  0  0
  8  7  1  0  0  0  0
  9  8  1  0  0  0  0
  9 11  2  0  0  0  0
 10  9  1  0  0  0  0
 11 12  1  0  0  0  0
 12 14  2  0  0  0  0
 12 13  1  0  0  0  0
 14 16  1  0  0  0  0
 15  1  1  0  0  0  0
 16  6  2  0  0  0  0
M  CHG  2   1  -1   5  -1
M  END
