2,5,6
 OpenBabel05122313063D

 30 31  0  0  0  0  0  0  0  0999 V2000
   -5.4023    0.0519   -0.6735 Br  0  0  0  0  0  0  0  0  0  0  0  0
   -0.2421   -1.7820    0.4592 N   0  0  0  0  0  2  0  0  0  0  0  0
    1.0867   -1.9498    0.7045 N   0  0  0  0  0  0  0  0  0  0  0  0
    7.5226   -1.2084    0.0754 N   0  0  0  0  0  0  0  0  0  0  0  0
   -2.4369   -0.5198   -0.3619 O   0  5  0  0  0  0  0  0  0  0  0  0
    1.2008   -0.4464   -1.0266 O   0  5  0  0  0  0  0  0  0  0  0  0
    8.0605   -1.9171    0.9263 O   0  0  0  0  0  0  0  0  0  0  0  0
    8.1165   -0.4949   -0.7333 O   0  0  0  0  0  0  0  0  0  0  0  0
   -2.5105   -2.3836    1.1411 C   0  0  0  0  0  0  0  0  0  0  0  0
   -3.1413   -1.3724    0.3408 C   0  0  0  0  0  0  0  0  0  0  0  0
   -4.5623   -1.2923    0.3664 C   0  0  0  0  0  0  0  0  0  0  0  0
   -5.3233   -2.1764    1.1358 C   0  0  0  0  0  0  0  0  0  0  0  0
   -6.4190   -2.0865    1.1233 H   0  0  0  0  0  0  0  0  0  0  0  0
   -4.6931   -3.1674    1.9172 C   0  0  0  0  0  0  0  0  0  0  0  0
   -5.3037   -3.8562    2.5180 H   0  0  0  0  0  0  0  0  0  0  0  0
   -3.3039   -3.2625    1.9240 C   0  0  0  0  0  0  0  0  0  0  0  0
   -2.7988   -4.0264    2.5347 H   0  0  0  0  0  0  0  0  0  0  0  0
   -1.0796   -2.4715    1.2025 C   0  0  0  0  0  3  0  0  0  0  0  0
   -0.6217   -3.1605    1.9357 H   0  0  0  0  0  0  0  0  0  0  0  0
    1.7831   -1.2066   -0.1366 C   0  0  0  0  0  0  0  0  0  0  0  0
    3.2592   -1.2200   -0.0763 C   0  0  0  0  0  0  0  0  0  0  0  0
    3.9973   -0.4283   -0.9833 C   0  0  0  0  0  0  0  0  0  0  0  0
    3.4509    0.1772   -1.7197 H   0  0  0  0  0  0  0  0  0  0  0  0
    5.3942   -0.4221   -0.9382 C   0  0  0  0  0  0  0  0  0  0  0  0
    6.0019    0.1797   -1.6266 H   0  0  0  0  0  0  0  0  0  0  0  0
    6.0396   -1.2139    0.0210 C   0  0  0  0  0  0  0  0  0  0  0  0
    5.3302   -2.0108    0.9325 C   0  0  0  0  0  0  0  0  0  0  0  0
    5.8903   -2.6116    1.6610 H   0  0  0  0  0  0  0  0  0  0  0  0
    3.9351   -2.0112    0.8805 C   0  0  0  0  0  0  0  0  0  0  0  0
    3.3404   -2.6194    1.5759 H   0  0  0  0  0  0  0  0  0  0  0  0
  1 11  1  0  0  0  0
  2  3  1  0  0  0  0
  2 18  1  0  0  0  0
  4  7  2  0  0  0  0
  5 10  1  0  0  0  0
  6 20  1  0  0  0  0
  8  4  2  0  0  0  0
  9 18  1  0  0  0  0
  9 16  1  0  0  0  0
 10 11  1  0  0  0  0
 10  9  2  0  0  0  0
 11 12  2  0  0  0  0
 12 14  1  0  0  0  0
 13 12  1  0  0  0  0
 14 16  2  0  0  0  0
 14 15  1  0  0  0  0
 16 17  1  0  0  0  0
 18 19  1  0  0  0  0
 20 21  1  0  0  0  0
 20  3  2  0  0  0  0
 21 29  1  0  0  0  0
 22 24  1  0  0  0  0
 22 21  2  0  0  0  0
 23 22  1  0  0  0  0
 24 26  2  0  0  0  0
 25 24  1  0  0  0  0
 26  4  1  0  0  0  0
 26 27  1  0  0  0  0
 27 28  1  0  0  0  0
 29 27  2  0  0  0  0
 29 30  1  0  0  0  0
M  CHG  2   5  -1   6  -1
M  END
