3,4,5
 OpenBabel05122313063D

 27 28  0  0  0  0  0  0  0  0999 V2000
    5.4527    0.1323   -0.1502 N   0  0  0  0  0  0  0  0  0  0  0  0
    0.8804   -1.4625   -0.1915 N   0  0  0  0  0  0  0  0  0  0  0  0
   -0.3906   -0.9675   -0.2159 N   0  0  0  0  0  2  0  0  0  0  0  0
    1.3512    0.7892   -0.1946 O   0  5  0  0  0  0  0  0  0  0  0  0
   -2.3397    0.8487   -0.0165 O   0  5  0  0  0  0  0  0  0  0  0  0
    1.7408   -0.4591   -0.1995 C   0  0  0  0  0  0  0  0  0  0  0  0
    3.1894   -0.7440   -0.1795 C   0  0  0  0  0  0  0  0  0  0  0  0
    3.6823   -2.0651   -0.1599 C   0  0  0  0  0  0  0  0  0  0  0  0
    2.9693   -2.9023   -0.1646 H   0  0  0  0  0  0  0  0  0  0  0  0
    5.0655   -2.2609   -0.1355 C   0  0  0  0  0  0  0  0  0  0  0  0
    5.4954   -3.2736   -0.1206 H   0  0  0  0  0  0  0  0  0  0  0  0
    5.9055   -1.1316   -0.1304 C   0  0  0  0  0  0  0  0  0  0  0  0
    7.0031   -1.2585   -0.1095 H   0  0  0  0  0  0  0  0  0  0  0  0
    4.1253    0.3143   -0.1755 C   0  0  0  0  0  0  0  0  0  0  0  0
    3.7552    1.3537   -0.1965 H   0  0  0  0  0  0  0  0  0  0  0  0
   -1.3704   -1.8406   -0.1691 C   0  0  0  0  0  3  0  0  0  0  0  0
   -1.0767   -2.9070   -0.1485 H   0  0  0  0  0  0  0  0  0  0  0  0
   -2.7669   -1.5096   -0.1316 C   0  0  0  0  0  0  0  0  0  0  0  0
   -3.7368   -2.5460   -0.1399 C   0  0  0  0  0  0  0  0  0  0  0  0
   -3.3885   -3.5890   -0.2035 H   0  0  0  0  0  0  0  0  0  0  0  0
   -5.0991   -2.2607   -0.0728 C   0  0  0  0  0  0  0  0  0  0  0  0
   -5.8384   -3.0743   -0.0847 H   0  0  0  0  0  0  0  0  0  0  0  0
   -5.5198   -0.9160    0.0123 C   0  0  0  0  0  0  0  0  0  0  0  0
   -6.5940   -0.6815    0.0684 H   0  0  0  0  0  0  0  0  0  0  0  0
   -4.5915    0.1277    0.0269 C   0  0  0  0  0  0  0  0  0  0  0  0
   -4.9057    1.1787    0.0955 H   0  0  0  0  0  0  0  0  0  0  0  0
   -3.2050   -0.1468   -0.0465 C   0  0  0  0  0  0  0  0  0  0  0  0
  1 12  1  0  0  0  0
  3  2  1  0  0  0  0
  3 16  1  0  0  0  0
  6  4  1  0  0  0  0
  6  2  2  0  0  0  0
  6  7  1  0  0  0  0
  7 14  1  0  0  0  0
  7  8  2  0  0  0  0
  8 10  1  0  0  0  0
  9  8  1  0  0  0  0
 10 12  2  0  0  0  0
 10 11  1  0  0  0  0
 12 13  1  0  0  0  0
 14  1  2  0  0  0  0
 15 14  1  0  0  0  0
 16 17  1  0  0  0  0
 16 18  1  0  0  0  0
 18 27  1  0  0  0  0
 19 18  2  0  0  0  0
 19 21  1  0  0  0  0
 20 19  1  0  0  0  0
 21 23  2  0  0  0  0
 22 21  1  0  0  0  0
 23 25  1  0  0  0  0
 23 24  1  0  0  0  0
 25 26  1  0  0  0  0
 27  5  1  0  0  0  0
 27 25  2  0  0  0  0
M  CHG  2   4  -1   5  -1
M  END
