1,2,5
 OpenBabel05122313063D

 54 57  0  0  1  0  0  0  0  0999 V2000
    1.9316   -1.8052   -0.4659 O   0  5  0  0  0  0  0  0  0  0  0  0
   -1.9464   -1.7425   -0.5850 O   0  5  0  0  0  0  0  0  0  0  0  0
    2.6013    0.3721   -0.2847 N   0  0  0  0  0  0  0  0  0  0  0  0
    1.2831    0.5492   -0.3147 N   0  0  0  0  0  0  0  0  0  0  0  0
   -1.2334    0.5896   -0.3846 N   0  0  0  0  0  2  0  0  0  0  0  0
   -2.5549    0.4431   -0.3123 N   0  0  0  0  0  0  0  0  0  0  0  0
    2.8733   -0.9336   -0.3688 C   0  0  0  0  0  0  0  0  0  0  0  0
    4.2802   -1.3797   -0.3173 C   0  0  0  0  0  0  0  0  0  0  0  0
    4.5718   -2.7594   -0.3725 C   0  0  0  0  0  0  0  0  0  0  0  0
    3.7353   -3.4678   -0.4565 H   0  0  0  0  0  0  0  0  0  0  0  0
    5.9009   -3.1967   -0.3219 C   0  0  0  0  0  0  0  0  0  0  0  0
    6.1262   -4.2731   -0.3650 H   0  0  0  0  0  0  0  0  0  0  0  0
    6.9464   -2.2632   -0.2191 C   0  0  0  0  0  0  0  0  0  0  0  0
    7.9908   -2.6089   -0.1814 H   0  0  0  0  0  0  0  0  0  0  0  0
    6.6597   -0.8876   -0.1674 C   0  0  0  0  0  0  0  0  0  0  0  0
    7.4792   -0.1571   -0.0906 H   0  0  0  0  0  0  0  0  0  0  0  0
    5.3333   -0.4435   -0.2154 C   0  0  0  0  0  0  0  0  0  0  0  0
    5.0867    0.6273   -0.1805 H   0  0  0  0  0  0  0  0  0  0  0  0
    0.7659    1.7671   -0.2012 C   0  0  0  0  0  0  0  0  0  0  0  0
    1.5910    2.9929   -0.0968 C   0  0  0  0  0  0  0  0  0  0  0  0
    2.6593    3.0816    0.8238 C   0  0  0  0  0  0  0  0  0  0  0  0
    2.8932    2.2192    1.4614 H   0  0  0  0  0  0  0  0  0  0  0  0
    3.4078    4.2612    0.9240 C   0  0  0  0  0  0  0  0  0  0  0  0
    4.2301    4.3231    1.6529 H   0  0  0  0  0  0  0  0  0  0  0  0
    3.1164    5.3588    0.0970 C   0  0  0  0  0  0  0  0  0  0  0  0
    3.7114    6.2816    0.1740 H   0  0  0  0  0  0  0  0  0  0  0  0
    2.0650    5.2741   -0.8291 C   0  0  0  0  0  0  0  0  0  0  0  0
    1.8341    6.1272   -1.4846 H   0  0  0  0  0  0  0  0  0  0  0  0
    1.3014    4.1033   -0.9209 C   0  0  0  0  0  0  0  0  0  0  0  0
    0.4752    4.0420   -1.6438 H   0  0  0  0  0  0  0  0  0  0  0  0
   -0.6841    1.7855   -0.2058 C   0  0  2  0  0  3  0  0  0  0  0  0
   -1.4839    3.0080    0.0396 C   0  0  0  0  0  0  0  0  0  0  0  0
   -1.1601    3.8631    1.1163 C   0  0  0  0  0  0  0  0  0  0  0  0
   -0.3209    3.6084    1.7792 H   0  0  0  0  0  0  0  0  0  0  0  0
   -1.9072    5.0253    1.3490 C   0  0  0  0  0  0  0  0  0  0  0  0
   -1.6487    5.6774    2.1969 H   0  0  0  0  0  0  0  0  0  0  0  0
   -2.9767    5.3574    0.5031 C   0  0  0  0  0  0  0  0  0  0  0  0
   -3.5581    6.2747    0.6818 H   0  0  0  0  0  0  0  0  0  0  0  0
   -3.3039    4.5136   -0.5716 C   0  0  0  0  0  0  0  0  0  0  0  0
   -4.1411    4.7694   -1.2387 H   0  0  0  0  0  0  0  0  0  0  0  0
   -2.5716    3.3418   -0.7982 C   0  0  0  0  0  0  0  0  0  0  0  0
   -2.8343    2.6759   -1.6311 H   0  0  0  0  0  0  0  0  0  0  0  0
   -2.8616   -0.8515   -0.4227 C   0  0  0  0  0  0  0  0  0  0  0  0
   -4.2761   -1.2666   -0.3326 C   0  0  0  0  0  0  0  0  0  0  0  0
   -5.2962   -0.3151   -0.1091 C   0  0  0  0  0  0  0  0  0  0  0  0
   -5.0167    0.7425    0.0008 H   0  0  0  0  0  0  0  0  0  0  0  0
   -6.6306   -0.7291   -0.0265 C   0  0  0  0  0  0  0  0  0  0  0  0
   -7.4242    0.0132    0.1483 H   0  0  0  0  0  0  0  0  0  0  0  0
   -6.9581   -2.0896   -0.1638 C   0  0  0  0  0  0  0  0  0  0  0  0
   -8.0087   -2.4116   -0.0978 H   0  0  0  0  0  0  0  0  0  0  0  0
   -5.9452   -3.0384   -0.3846 C   0  0  0  0  0  0  0  0  0  0  0  0
   -6.2023   -4.1031   -0.4926 H   0  0  0  0  0  0  0  0  0  0  0  0
   -4.6082   -2.6314   -0.4689 C   0  0  0  0  0  0  0  0  0  0  0  0
   -3.7968   -3.3527   -0.6424 H   0  0  0  0  0  0  0  0  0  0  0  0
  1  7  1  0  0  0  0
  2 43  1  0  0  0  0
  4  3  1  0  0  0  0
  4 19  2  0  0  0  0
  5  6  1  0  0  0  0
  7  8  1  0  0  0  0
  7  3  2  0  0  0  0
  8 17  1  0  0  0  0
  9 11  1  0  0  0  0
  9  8  2  0  0  0  0
 10  9  1  0  0  0  0
 11 13  2  0  0  0  0
 12 11  1  0  0  0  0
 13 14  1  0  0  0  0
 13 15  1  0  0  0  0
 15 16  1  0  0  0  0
 17 18  1  0  0  0  0
 17 15  2  0  0  0  0
 19 20  1  0  0  0  0
 20 21  1  0  0  0  0
 21 23  2  0  0  0  0
 21 22  1  0  0  0  0
 23 24  1  0  0  0  0
 25 26  1  0  0  0  0
 25 23  1  0  0  0  0
 27 25  2  0  0  0  0
 28 27  1  0  0  0  0
 29 27  1  0  0  0  0
 29 20  2  0  0  0  0
 30 29  1  0  0  0  0
 31  5  1  1  0  0  0
 31 19  1  0  0  0  0
 31 32  1  0  0  0  0
 32 33  1  0  0  0  0
 33 35  2  0  0  0  0
 33 34  1  0  0  0  0
 35 36  1  0  0  0  0
 37 38  1  0  0  0  0
 37 35  1  0  0  0  0
 39 37  2  0  0  0  0
 40 39  1  0  0  0  0
 41 39  1  0  0  0  0
 41 32  2  0  0  0  0
 42 41  1  0  0  0  0
 43 44  1  0  0  0  0
 43  6  2  0  0  0  0
 44 45  1  0  0  0  0
 45 47  2  0  0  0  0
 45 46  1  0  0  0  0
 47 48  1  0  0  0  0
 49 50  1  0  0  0  0
 49 47  1  0  0  0  0
 51 49  2  0  0  0  0
 52 51  1  0  0  0  0
 53 51  1  0  0  0  0
 53 44  2  0  0  0  0
 54 53  1  0  0  0  0
M  CHG  2   1  -1   2  -1
M  END
