3,4,6
 OpenBabel05122313063D

 40 41  0  0  0  0  0  0  0  0999 V2000
    8.5966   -1.3809   -0.1626 Cl  0  0  0  0  0  0  0  0  0  0  0  0
   -8.5953   -1.3805   -0.1653 Cl  0  0  0  0  0  0  0  0  0  0  0  0
    1.9441   -0.3986   -0.5173 O   0  5  0  0  0  0  0  0  0  0  0  0
   -1.9482   -0.3828   -0.5040 O   0  5  0  0  0  0  0  0  0  0  0  0
    2.5783    1.7585   -0.0999 N   0  0  0  0  0  0  0  0  0  0  0  0
    1.2537    1.9076   -0.1448 N   0  0  0  0  0  2  0  0  0  0  0  0
   -1.2581    1.9318   -0.1407 N   0  0  0  0  0  2  0  0  0  0  0  0
   -2.5824    1.7774   -0.1003 N   0  0  0  0  0  0  0  0  0  0  0  0
    2.8705    0.4698   -0.3078 C   0  0  0  0  0  0  0  0  0  0  0  0
    4.2787    0.0314   -0.2705 C   0  0  0  0  0  0  0  0  0  0  0  0
    4.5884   -1.3283   -0.4867 C   0  0  0  0  0  0  0  0  0  0  0  0
    3.7645   -2.0294   -0.6818 H   0  0  0  0  0  0  0  0  0  0  0  0
    5.9148   -1.7687   -0.4543 C   0  0  0  0  0  0  0  0  0  0  0  0
    6.1667   -2.8251   -0.6220 H   0  0  0  0  0  0  0  0  0  0  0  0
    6.9407   -0.8400   -0.2045 C   0  0  0  0  0  0  0  0  0  0  0  0
    6.6516    0.5200    0.0119 C   0  0  0  0  0  0  0  0  0  0  0  0
    7.4715    1.2260    0.2043 H   0  0  0  0  0  0  0  0  0  0  0  0
    5.3224    0.9496   -0.0213 C   0  0  0  0  0  0  0  0  0  0  0  0
    5.0690    2.0060    0.1456 H   0  0  0  0  0  0  0  0  0  0  0  0
    0.7291    3.0958    0.1054 C   0  0  0  0  0  0  0  0  0  0  0  0
    1.5958    4.2775    0.3999 C   0  0  0  0  0  0  0  0  0  0  0  0
    2.3084    4.4422   -0.4336 H   0  0  0  0  0  0  0  0  0  0  0  0
    2.2201    4.0744    1.2944 H   0  0  0  0  0  0  0  0  0  0  0  0
    1.0055    5.1952    0.5663 H   0  0  0  0  0  0  0  0  0  0  0  0
   -0.7123    3.1124    0.1057 C   0  0  0  0  0  0  0  0  0  0  0  0
   -1.5230    4.3364    0.3953 C   0  0  0  0  0  0  0  0  0  0  0  0
   -2.5962    4.0988    0.3002 H   0  0  0  0  0  0  0  0  0  0  0  0
   -1.2635    5.1568   -0.3047 H   0  0  0  0  0  0  0  0  0  0  0  0
   -1.3266    4.7063    1.4233 H   0  0  0  0  0  0  0  0  0  0  0  0
   -2.8741    0.4902   -0.3019 C   0  0  0  0  0  0  0  0  0  0  0  0
   -4.2821    0.0494   -0.2664 C   0  0  0  0  0  0  0  0  0  0  0  0
   -5.3303    0.9633   -0.0211 C   0  0  0  0  0  0  0  0  0  0  0  0
   -5.0840    2.0213    0.1450 H   0  0  0  0  0  0  0  0  0  0  0  0
   -6.6579    0.5283    0.0100 C   0  0  0  0  0  0  0  0  0  0  0  0
   -7.4808    1.2315    0.1995 H   0  0  0  0  0  0  0  0  0  0  0  0
   -6.9414   -0.8331   -0.2045 C   0  0  0  0  0  0  0  0  0  0  0  0
   -5.9112   -1.7579   -0.4504 C   0  0  0  0  0  0  0  0  0  0  0  0
   -6.1581   -2.8156   -0.6168 H   0  0  0  0  0  0  0  0  0  0  0  0
   -4.5865   -1.3119   -0.4806 C   0  0  0  0  0  0  0  0  0  0  0  0
   -3.7595   -2.0102   -0.6728 H   0  0  0  0  0  0  0  0  0  0  0  0
  3  9  1  0  0  0  0
  4 30  1  0  0  0  0
  6  5  1  0  0  0  0
  6 20  1  0  0  0  0
  7  8  1  0  0  0  0
  7 25  1  0  0  0  0
  9 10  1  0  0  0  0
  9  5  2  0  0  0  0
 10 18  1  0  0  0  0
 11 13  1  0  0  0  0
 11 10  2  0  0  0  0
 12 11  1  0  0  0  0
 13 15  2  0  0  0  0
 14 13  1  0  0  0  0
 15  1  1  0  0  0  0
 15 16  1  0  0  0  0
 16 17  1  0  0  0  0
 18 16  2  0  0  0  0
 18 19  1  0  0  0  0
 20 25  2  0  0  0  0
 20 21  1  0  0  0  0
 21 24  1  0  0  0  0
 21 23  1  0  0  0  0
 22 21  1  0  0  0  0
 25 26  1  0  0  0  0
 26 29  1  0  0  0  0
 27 26  1  0  0  0  0
 28 26  1  0  0  0  0
 30 31  1  0  0  0  0
 30  8  2  0  0  0  0
 31 32  1  0  0  0  0
 32 34  2  0  0  0  0
 32 33  1  0  0  0  0
 34 35  1  0  0  0  0
 36  2  1  0  0  0  0
 36 34  1  0  0  0  0
 37 36  2  0  0  0  0
 38 37  1  0  0  0  0
 39 37  1  0  0  0  0
 39 31  2  0  0  0  0
 40 39  1  0  0  0  0
M  CHG  2   3  -1   4  -1
M  END
