3,4,6
 OpenBabel05122313063D

 31 32  0  0  0  0  0  0  0  0999 V2000
   -6.4916   -1.9951    0.0179 Br  0  0  0  0  0  0  0  0  0  0  0  0
    7.8195   -2.6320   -0.0498 Cl  0  0  0  0  0  0  0  0  0  0  0  0
    1.9794    0.7351   -0.0181 O   0  5  0  0  0  0  0  0  0  0  0  0
   -1.5920    1.5531    0.0138 O   0  5  0  0  0  0  0  0  0  0  0  0
    1.1356   -1.4039   -0.0019 N   0  0  0  0  0  0  0  0  0  0  0  0
   -0.0462   -0.7074   -0.0008 N   0  0  0  0  0  2  0  0  0  0  0  0
    6.1791   -2.0382   -0.0402 C   0  0  0  0  0  0  0  0  0  0  0  0
    5.9400   -0.6582   -0.1511 C   0  0  0  0  0  0  0  0  0  0  0  0
    6.7876    0.0348   -0.2467 H   0  0  0  0  0  0  0  0  0  0  0  0
    4.6218   -0.1893   -0.1411 C   0  0  0  0  0  0  0  0  0  0  0  0
    4.4117    0.8854   -0.2348 H   0  0  0  0  0  0  0  0  0  0  0  0
    3.5372   -1.0841   -0.0214 C   0  0  0  0  0  0  0  0  0  0  0  0
    3.7998   -2.4679    0.0849 C   0  0  0  0  0  0  0  0  0  0  0  0
    2.9526   -3.1616    0.1769 H   0  0  0  0  0  0  0  0  0  0  0  0
    5.1126   -2.9477    0.0774 C   0  0  0  0  0  0  0  0  0  0  0  0
    5.3221   -4.0231    0.1624 H   0  0  0  0  0  0  0  0  0  0  0  0
    2.1542   -0.5661   -0.0122 C   0  0  0  0  0  0  0  0  0  0  0  0
   -1.1903   -1.3936   -0.0098 C   0  0  0  0  0  0  0  0  0  0  0  0
   -1.1395   -2.8985   -0.0289 C   0  0  0  0  0  0  0  0  0  0  0  0
   -0.0907   -3.2341   -0.0550 H   0  0  0  0  0  0  0  0  0  0  0  0
   -1.6746   -3.2956   -0.9149 H   0  0  0  0  0  0  0  0  0  0  0  0
   -1.6348   -3.3172    0.8706 H   0  0  0  0  0  0  0  0  0  0  0  0
   -2.4744   -0.7209    0.0035 C   0  0  0  0  0  0  0  0  0  0  0  0
   -2.6011    0.7150    0.0163 C   0  0  0  0  0  0  0  0  0  0  0  0
   -3.9097    1.2831    0.0319 C   0  0  0  0  0  0  0  0  0  0  0  0
   -3.9782    2.3805    0.0488 H   0  0  0  0  0  0  0  0  0  0  0  0
   -5.0556    0.4990    0.0320 C   0  0  0  0  0  0  0  0  0  0  0  0
   -6.0525    0.9621    0.0447 H   0  0  0  0  0  0  0  0  0  0  0  0
   -4.9244   -0.9076    0.0176 C   0  0  0  0  0  0  0  0  0  0  0  0
   -3.6688   -1.5012    0.0043 C   0  0  0  0  0  3  0  0  0  0  0  0
   -3.6039   -2.5958   -0.0053 H   0  0  0  0  0  0  0  0  0  0  0  0
  2  7  1  0  0  0  0
  3 17  1  0  0  0  0
  4 24  1  0  0  0  0
  5  6  1  0  0  0  0
  7 15  1  0  0  0  0
  8 10  1  0  0  0  0
  8  7  2  0  0  0  0
  9  8  1  0  0  0  0
 10 12  2  0  0  0  0
 11 10  1  0  0  0  0
 12 17  1  0  0  0  0
 12 13  1  0  0  0  0
 13 14  1  0  0  0  0
 15 13  2  0  0  0  0
 15 16  1  0  0  0  0
 17  5  2  0  0  0  0
 18  6  1  0  0  0  0
 18 23  2  0  0  0  0
 19 18  1  0  0  0  0
 19 22  1  0  0  0  0
 20 19  1  0  0  0  0
 21 19  1  0  0  0  0
 23 30  1  0  0  0  0
 23 24  1  0  0  0  0
 24 25  2  0  0  0  0
 25 27  1  0  0  0  0
 25 26  1  0  0  0  0
 27 28  1  0  0  0  0
 29  1  1  0  0  0  0
 29 27  2  0  0  0  0
 30 29  1  0  0  0  0
 31 30  1  0  0  0  0
M  CHG  2   3  -1   4  -1
M  END
