2,3,4
 OpenBabel05122313063D

 41 43  0  0  1  0  0  0  0  0999 V2000
   -3.5545   -0.1016    0.1297 C   0  0  0  0  0  0  0  0  0  0  0  0
   -2.7447    0.8139    0.6172 O   0  5  0  0  0  0  0  0  0  0  0  0
    0.7199    1.4299    0.1663 O   0  0  0  0  0  1  0  0  0  0  0  0
   -0.7825   -0.3582   -0.7316 N   0  0  0  0  0  2  0  0  0  0  0  0
    1.1948   -1.5875    0.0985 C   0  0  0  0  0  0  0  0  0  0  0  0
   -1.6798   -1.2440   -1.0496 C   0  0  0  0  0  3  0  0  0  0  0  0
   -1.3541   -2.1778   -1.5568 H   0  0  0  0  0  0  0  0  0  0  0  0
   -3.0825   -1.1365   -0.7457 C   0  0  0  0  0  0  0  0  0  0  0  0
    2.2679   -2.4375   -0.2323 C   0  0  0  0  0  0  0  0  0  0  0  0
    2.6511   -2.4491   -1.2646 H   0  0  0  0  0  0  0  0  0  0  0  0
    2.8654   -3.2471    0.7436 C   0  0  0  0  0  0  0  0  0  0  0  0
    3.7051   -3.9033    0.4690 H   0  0  0  0  0  0  0  0  0  0  0  0
    1.3134    0.7674   -0.9104 C   0  0  1  0  0  0  0  0  0  0  0  0
    1.0446    1.2755   -1.8708 H   0  0  0  0  0  0  0  0  0  0  0  0
    2.8198    0.6968   -0.7891 C   0  0  0  0  0  0  0  0  0  0  0  0
   -4.9251   -0.0977    0.4980 C   0  0  0  0  0  0  0  0  0  0  0  0
   -5.2709    0.6931    1.1786 H   0  0  0  0  0  0  0  0  0  0  0  0
    0.6347   -0.6487   -0.9547 C   0  0  2  0  0  0  0  0  0  0  0  0
    0.7882   -1.1000   -1.9593 H   0  0  0  0  0  0  0  0  0  0  0  0
    4.8258    0.6065    0.5874 C   0  0  0  0  0  0  0  0  0  0  0  0
    5.3003    0.6513    1.5797 H   0  0  0  0  0  0  0  0  0  0  0  0
   -3.9906   -2.1145   -1.2279 C   0  0  0  0  0  0  0  0  0  0  0  0
   -3.6068   -2.9069   -1.8904 H   0  0  0  0  0  0  0  0  0  0  0  0
    3.6118    0.5028   -1.9356 C   0  0  0  0  0  0  0  0  0  0  0  0
    3.1340    0.4749   -2.9287 H   0  0  0  0  0  0  0  0  0  0  0  0
    0.7236   -1.5691    1.4257 C   0  0  0  0  0  0  0  0  0  0  0  0
   -0.1194   -0.9169    1.6956 H   0  0  0  0  0  0  0  0  0  0  0  0
    5.0018    0.3486   -1.8215 C   0  0  0  0  0  0  0  0  0  0  0  0
    5.6132    0.1979   -2.7245 H   0  0  0  0  0  0  0  0  0  0  0  0
    5.6117    0.3975   -0.5576 C   0  0  0  0  0  0  0  0  0  0  0  0
    6.7023    0.2799   -0.4664 H   0  0  0  0  0  0  0  0  0  0  0  0
    1.3215   -2.3790    2.4025 C   0  0  0  0  0  0  0  0  0  0  0  0
    0.9436   -2.3532    3.4360 H   0  0  0  0  0  0  0  0  0  0  0  0
    3.4362    0.7542    0.4735 C   0  0  0  0  0  0  0  0  0  0  0  0
    2.8050    0.9135    1.3593 H   0  0  0  0  0  0  0  0  0  0  0  0
   -5.3371   -2.0793   -0.8770 C   0  0  0  0  0  0  0  0  0  0  0  0
   -6.0349   -2.8352   -1.2645 H   0  0  0  0  0  0  0  0  0  0  0  0
   -5.7953   -1.0637   -0.0069 C   0  0  0  0  0  0  0  0  0  0  0  0
   -6.8578   -1.0321    0.2803 H   0  0  0  0  0  0  0  0  0  0  0  0
    2.3953   -3.2179    2.0660 C   0  0  0  0  0  0  0  0  0  0  0  0
    2.8631   -3.8529    2.8336 H   0  0  0  0  0  0  0  0  0  0  0  0
  1 16  1  0  0  0  0
  1  2  1  0  0  0  0
  5 26  1  0  0  0  0
  6  8  1  0  0  0  0
  6  4  1  0  0  0  0
  7  6  1  0  0  0  0
  8  1  2  0  0  0  0
  9  5  2  0  0  0  0
  9 11  1  0  0  0  0
 10  9  1  0  0  0  0
 11 40  2  0  0  0  0
 12 11  1  0  0  0  0
 13 14  1  6  0  0  0
 13 15  1  0  0  0  0
 13  3  1  0  0  0  0
 15 34  1  0  0  0  0
 16 17  1  0  0  0  0
 18 19  1  6  0  0  0
 18 13  1  0  0  0  0
 18  4  1  0  0  0  0
 18  5  1  0  0  0  0
 20 21  1  0  0  0  0
 22 36  2  0  0  0  0
 22  8  1  0  0  0  0
 23 22  1  0  0  0  0
 24 28  1  0  0  0  0
 24 15  2  0  0  0  0
 25 24  1  0  0  0  0
 26 27  1  0  0  0  0
 26 32  2  0  0  0  0
 28 30  2  0  0  0  0
 29 28  1  0  0  0  0
 30 31  1  0  0  0  0
 30 20  1  0  0  0  0
 32 33  1  0  0  0  0
 34 20  2  0  0  0  0
 34 35  1  0  0  0  0
 36 38  1  0  0  0  0
 37 36  1  0  0  0  0
 38 39  1  0  0  0  0
 38 16  2  0  0  0  0
 40 32  1  0  0  0  0
 40 41  1  0  0  0  0
M  CHG  1   2  -1
M  END
