1,2,4
 OpenBabel05122313063D

 22 22  0  0  1  0  0  0  0  0999 V2000
    0.5447    1.3411    0.4513 N   0  0  0  0  0  2  0  0  0  0  0  0
   -0.3549   -1.3896   -0.0467 O   0  0  0  0  0  1  0  0  0  0  0  0
   -6.5907    0.0931   -0.1680 O   0  0  0  0  0  0  0  0  0  0  0  0
    2.8615    0.5914   -0.6370 O   0  5  0  0  0  0  0  0  0  0  0  0
    3.6141    2.7205   -0.8327 O   0  0  0  0  0  0  0  0  0  0  0  0
   -0.7214    1.5792    0.2688 C   0  0  0  0  0  0  0  0  0  0  0  0
   -1.0507    2.6385    0.1702 H   0  0  0  0  0  0  0  0  0  0  0  0
   -1.7712    0.5886    0.1547 C   0  0  0  0  0  0  0  0  0  0  0  0
   -3.1028    1.0696    0.1314 C   0  0  0  0  0  0  0  0  0  0  0  0
   -3.2748    2.1545    0.2455 H   0  0  0  0  0  0  0  0  0  0  0  0
   -4.2039    0.2240   -0.0261 C   0  0  0  0  0  0  0  0  0  0  0  0
   -3.9723   -1.1698   -0.1932 C   0  0  0  0  0  0  0  0  0  0  0  0
   -4.8502   -1.8224   -0.3199 H   0  0  0  0  0  0  0  0  0  0  0  0
   -2.6855   -1.6764   -0.1991 C   0  0  0  0  0  0  0  0  0  0  0  0
   -2.4926   -2.7516   -0.3309 H   0  0  0  0  0  0  0  0  0  0  0  0
   -1.5353   -0.8382   -0.0205 C   0  0  1  0  0  3  0  0  0  0  0  0
   -5.5768    0.7620   -0.0319 C   0  0  0  0  0  0  0  0  0  0  0  0
   -5.6306    1.8868    0.1042 H   0  0  0  0  0  0  0  0  0  0  0  0
    1.5536    2.3746    0.3596 C   0  0  0  0  0  0  0  0  0  0  0  0
    1.9456    2.6113    1.3753 H   0  0  0  0  0  0  0  0  0  0  0  0
    1.1751    3.3245   -0.0746 H   0  0  0  0  0  0  0  0  0  0  0  0
    2.7963    1.8944   -0.4633 C   0  0  0  0  0  0  0  0  0  0  0  0
  3 17  2  0  0  0  0
  4 22  1  0  0  0  0
  5 22  2  0  0  0  0
  6  1  1  0  0  0  0
  7  6  1  0  0  0  0
  8  6  2  0  0  0  0
  9  8  1  0  0  0  0
  9 10  1  0  0  0  0
 11  9  2  0  0  0  0
 12 11  1  0  0  0  0
 13 12  1  0  0  0  0
 14 12  2  0  0  0  0
 14 16  1  0  0  0  0
 15 14  1  0  0  0  0
 16  2  1  6  0  0  0
 16  8  1  0  0  0  0
 17 11  1  0  0  0  0
 17 18  1  0  0  0  0
 19  1  1  0  0  0  0
 19 20  1  0  0  0  0
 21 19  1  0  0  0  0
 22 19  1  0  0  0  0
M  CHG  1   4  -1
M  END
