1,2,9
 OpenBabel05122313063D

 31 31  0  0  0  0  0  0  0  0999 V2000
    0.3323   -1.7425    0.3668 O   0  5  0  0  0  0  0  0  0  0  0  0
   -3.0823   -0.3221   -0.4121 O   0  0  0  0  0  1  0  0  0  0  0  0
   -3.5873    2.5447    1.7266 O   0  0  0  0  0  0  0  0  0  0  0  0
   -4.3325    1.9219    1.6579 H   0  0  0  0  0  0  0  0  0  0  0  0
   -1.0968    3.0442   -1.7158 O   0  0  0  0  0  0  0  0  0  0  0  0
   -1.0445    3.9462   -2.0769 H   0  0  0  0  0  0  0  0  0  0  0  0
    6.3332    0.0178    0.1263 O   0  0  0  0  0  0  0  0  0  0  0  0
    5.3756    1.9726   -0.0943 O   0  0  0  0  0  0  0  0  0  0  0  0
   -0.7941    0.7706    0.0663 N   0  0  0  0  0  2  0  0  0  0  0  0
    5.3446    0.7482    0.0455 N   0  0  0  0  0  0  0  0  0  0  0  0
    0.4387    1.1722    0.0851 C   0  0  0  0  0  3  0  0  0  0  0  0
    0.6645    2.2568    0.0838 H   0  0  0  0  0  0  0  0  0  0  0  0
    1.5971    0.3022    0.1114 C   0  0  0  0  0  0  0  0  0  0  0  0
    1.4914   -1.1227    0.2735 C   0  0  0  0  0  0  0  0  0  0  0  0
    2.6830   -1.8922    0.3731 C   0  0  0  0  0  0  0  0  0  0  0  0
    2.5776   -2.9789    0.4998 H   0  0  0  0  0  0  0  0  0  0  0  0
    3.9339   -1.2911    0.2921 C   0  0  0  0  0  0  0  0  0  0  0  0
    4.8641   -1.8722    0.3515 H   0  0  0  0  0  0  0  0  0  0  0  0
    4.0194    0.1057    0.1252 C   0  0  0  0  0  0  0  0  0  0  0  0
    2.8759    0.8953    0.0437 C   0  0  0  0  0  0  0  0  0  0  0  0
    2.9915    1.9823   -0.0734 H   0  0  0  0  0  0  0  0  0  0  0  0
   -1.9190    1.7122    0.1054 C   0  0  0  0  0  0  0  0  0  0  0  0
   -2.9996    1.0375   -0.7655 C   0  0  0  0  0  0  0  0  0  0  0  0
   -3.9809    1.5306   -0.5919 H   0  0  0  0  0  0  0  0  0  0  0  0
   -2.7229    1.1567   -1.8372 H   0  0  0  0  0  0  0  0  0  0  0  0
   -2.3951    1.8005    1.5903 C   0  0  0  0  0  0  0  0  0  0  0  0
   -2.4732    0.7720    1.9987 H   0  0  0  0  0  0  0  0  0  0  0  0
   -1.6007    2.3286    2.1632 H   0  0  0  0  0  0  0  0  0  0  0  0
   -1.6084    3.1225   -0.4012 C   0  0  0  0  0  0  0  0  0  0  0  0
   -2.5588    3.6994   -0.3262 H   0  0  0  0  0  0  0  0  0  0  0  0
   -0.8915    3.6144    0.3052 H   0  0  0  0  0  0  0  0  0  0  0  0
  4  3  1  0  0  0  0
  5 29  1  0  0  0  0
  6  5  1  0  0  0  0
  8 10  2  0  0  0  0
  9 11  1  0  0  0  0
  9 22  1  0  0  0  0
 10 19  1  0  0  0  0
 10  7  2  0  0  0  0
 11 13  1  0  0  0  0
 12 11  1  0  0  0  0
 13 14  1  0  0  0  0
 14  1  1  0  0  0  0
 14 15  2  0  0  0  0
 15 16  1  0  0  0  0
 17 18  1  0  0  0  0
 17 15  1  0  0  0  0
 19 17  2  0  0  0  0
 20 13  2  0  0  0  0
 20 19  1  0  0  0  0
 21 20  1  0  0  0  0
 22 26  1  0  0  0  0
 23 24  1  0  0  0  0
 23  2  1  0  0  0  0
 23 22  1  0  0  0  0
 25 23  1  0  0  0  0
 26  3  1  0  0  0  0
 26 27  1  0  0  0  0
 26 28  1  0  0  0  0
 29 30  1  0  0  0  0
 29 22  1  0  0  0  0
 29 31  1  0  0  0  0
M  CHG  1   1  -1
M  END
