1,2,5
 OpenBabel05122313063D

 32 33  0  0  1  0  0  0  0  0999 V2000
    2.3340    0.8184   -0.7023 O   0  5  0  0  0  0  0  0  0  0  0  0
   -1.1992    0.9943   -0.2265 O   0  5  0  0  0  0  0  0  0  0  0  0
   -2.8305   -2.8644    0.1094 O   0  0  0  0  0  0  0  0  0  0  0  0
   -1.8749   -2.5081    0.0751 H   0  0  0  0  0  0  0  0  0  0  0  0
    0.4504   -0.8575   -0.0289 N   0  0  0  0  0  2  0  0  0  0  0  0
   -0.8463   -1.2584   -0.0381 N   0  0  0  0  0  0  0  0  0  0  0  0
    3.2165   -0.1271   -0.3903 C   0  0  0  0  0  0  0  0  0  0  0  0
    2.7961   -1.4381    0.0132 C   0  0  0  0  0  0  0  0  0  0  0  0
    3.8111   -2.3827    0.3257 C   0  0  0  0  0  0  0  0  0  0  0  0
    3.5243   -3.3867    0.6667 H   0  0  0  0  0  0  0  0  0  0  0  0
    5.1659   -2.0658    0.2382 C   0  0  0  0  0  0  0  0  0  0  0  0
    5.9226   -2.8186    0.5017 H   0  0  0  0  0  0  0  0  0  0  0  0
    5.5570   -0.7809   -0.1876 C   0  0  0  0  0  0  0  0  0  0  0  0
    6.6245   -0.5253   -0.2679 H   0  0  0  0  0  0  0  0  0  0  0  0
    4.5922    0.1770   -0.5012 C   0  0  0  0  0  0  0  0  0  0  0  0
    4.8649    1.1895   -0.8304 H   0  0  0  0  0  0  0  0  0  0  0  0
    1.3832   -1.7976    0.0440 C   0  0  2  0  0  3  0  0  0  0  0  0
    0.9329   -3.2294    0.1356 C   0  0  0  0  0  0  0  0  0  0  0  0
    0.2532   -3.4567   -0.7109 H   0  0  0  0  0  0  0  0  0  0  0  0
    0.3361   -3.3872    1.0578 H   0  0  0  0  0  0  0  0  0  0  0  0
    1.7687   -3.9460    0.1158 H   0  0  0  0  0  0  0  0  0  0  0  0
   -1.6755   -0.2149   -0.1168 C   0  0  0  0  0  0  0  0  0  0  0  0
   -3.1155   -0.4573   -0.0953 C   0  0  0  0  0  0  0  0  0  0  0  0
   -3.6258   -1.7945    0.0203 C   0  0  0  0  0  0  0  0  0  0  0  0
   -5.0279   -1.9834    0.0408 C   0  0  0  0  0  0  0  0  0  0  0  0
   -5.4039   -3.0127    0.1301 H   0  0  0  0  0  0  0  0  0  0  0  0
   -5.8936   -0.8930   -0.0489 C   0  0  0  0  0  0  0  0  0  0  0  0
   -6.9808   -1.0667   -0.0305 H   0  0  0  0  0  0  0  0  0  0  0  0
   -5.3954    0.4234   -0.1624 C   0  0  0  0  0  0  0  0  0  0  0  0
   -6.0868    1.2754   -0.2322 H   0  0  0  0  0  0  0  0  0  0  0  0
   -4.0175    0.6298   -0.1849 C   0  0  0  0  0  0  0  0  0  0  0  0
   -3.5932    1.6404   -0.2713 H   0  0  0  0  0  0  0  0  0  0  0  0
  1  7  1  0  0  0  0
  2 22  1  0  0  0  0
  4  3  1  0  0  0  0
  6  5  1  0  0  0  0
  7  8  1  0  0  0  0
  8 17  1  0  0  0  0
  8  9  2  0  0  0  0
  9 10  1  0  0  0  0
 11  9  1  0  0  0  0
 11 12  1  0  0  0  0
 13 11  2  0  0  0  0
 14 13  1  0  0  0  0
 15  7  2  0  0  0  0
 15 13  1  0  0  0  0
 16 15  1  0  0  0  0
 17  5  1  6  0  0  0
 17 18  1  0  0  0  0
 18 20  1  0  0  0  0
 19 18  1  0  0  0  0
 21 18  1  0  0  0  0
 22 23  1  0  0  0  0
 22  6  2  0  0  0  0
 23 24  1  0  0  0  0
 24 25  2  0  0  0  0
 24  3  1  0  0  0  0
 25 26  1  0  0  0  0
 27 28  1  0  0  0  0
 27 25  1  0  0  0  0
 29 27  2  0  0  0  0
 30 29  1  0  0  0  0
 31 29  1  0  0  0  0
 31 23  2  0  0  0  0
 32 31  1  0  0  0  0
M  CHG  2   1  -1   2  -1
M  END
