1,4,5
 OpenBabel05122313063D

 48 48  0  0  1  0  0  0  0  0999 V2000
   -2.9560   -0.4689   -0.3146 O   0  5  0  0  0  0  0  0  0  0  0  0
   -4.0509   -1.1036   -2.1735 O   0  0  0  0  0  0  0  0  0  0  0  0
    4.9953   -2.2336   -0.7695 O   0  0  0  0  0  0  0  0  0  0  0  0
    0.1587   -1.0630    1.5939 O   0  5  0  0  0  0  0  0  0  0  0  0
   -1.1207   -2.1347   -0.4708 N   0  0  0  0  0  2  0  0  0  0  0  0
   -3.1847   -1.2806   -1.3333 C   0  0  0  0  0  0  0  0  0  0  0  0
   -2.2432   -2.5020   -1.3256 C   0  0  2  0  0  0  0  0  0  0  0  0
   -1.8753   -2.6570   -2.3635 H   0  0  0  0  0  0  0  0  0  0  0  0
   -3.0012   -3.8259   -0.9224 C   0  0  0  0  0  0  0  0  0  0  0  0
   -3.9455   -3.6145    0.2736 C   0  0  0  0  0  0  0  0  0  0  0  0
   -4.4486   -4.5711    0.5221 H   0  0  0  0  0  0  0  0  0  0  0  0
   -4.7356   -2.8742    0.0372 H   0  0  0  0  0  0  0  0  0  0  0  0
   -3.4065   -3.2639    1.1732 H   0  0  0  0  0  0  0  0  0  0  0  0
   -3.8211   -4.2599   -2.1526 C   0  0  0  0  0  0  0  0  0  0  0  0
   -4.4271   -5.1557   -1.9079 H   0  0  0  0  0  0  0  0  0  0  0  0
   -3.1586   -4.5187   -3.0051 H   0  0  0  0  0  0  0  0  0  0  0  0
   -4.4983   -3.4483   -2.4811 H   0  0  0  0  0  0  0  0  0  0  0  0
   -1.9698   -4.9130   -0.5794 C   0  0  0  0  0  0  0  0  0  0  0  0
   -2.4896   -5.8749   -0.3946 H   0  0  0  0  0  0  0  0  0  0  0  0
   -1.3926   -4.6595    0.3318 H   0  0  0  0  0  0  0  0  0  0  0  0
   -1.2525   -5.0796   -1.4107 H   0  0  0  0  0  0  0  0  0  0  0  0
    0.0885   -2.4313   -0.8613 C   0  0  0  0  0  3  0  0  0  0  0  0
    0.1911   -3.0158   -1.7994 H   0  0  0  0  0  0  0  0  0  0  0  0
    1.3210   -2.0618   -0.2214 C   0  0  0  0  0  0  0  0  0  0  0  0
    2.5499   -2.3937   -0.8562 C   0  0  0  0  0  0  0  0  0  0  0  0
    2.5215   -2.9168   -1.8217 H   0  0  0  0  0  0  0  0  0  0  0  0
    3.7487   -2.0302   -0.2473 C   0  0  0  0  0  0  0  0  0  0  0  0
    5.0810   -2.8375   -2.0452 C   0  0  0  0  0  0  0  0  0  0  0  0
    6.1564   -2.8978   -2.2952 H   0  0  0  0  0  0  0  0  0  0  0  0
    4.5606   -2.2326   -2.8223 H   0  0  0  0  0  0  0  0  0  0  0  0
    4.6521   -3.8653   -2.0468 H   0  0  0  0  0  0  0  0  0  0  0  0
    3.7226   -1.3609    1.0030 C   0  0  0  0  0  0  0  0  0  0  0  0
    4.6990   -1.1017    1.4327 H   0  0  0  0  0  0  0  0  0  0  0  0
    2.5434   -1.0173    1.6647 C   0  0  0  0  0  0  0  0  0  0  0  0
    2.5495   -0.2557    3.0000 C   0  0  0  0  0  0  0  0  0  0  0  0
    3.9820    0.0622    3.4632 C   0  0  0  0  0  0  0  0  0  0  0  0
    3.9437    0.6051    4.4286 H   0  0  0  0  0  0  0  0  0  0  0  0
    4.5187    0.7081    2.7385 H   0  0  0  0  0  0  0  0  0  0  0  0
    4.5822   -0.8563    3.6234 H   0  0  0  0  0  0  0  0  0  0  0  0
    1.7926    1.0849    2.8330 C   0  0  0  0  0  0  0  0  0  0  0  0
    1.8637    1.6749    3.7700 H   0  0  0  0  0  0  0  0  0  0  0  0
    0.7225    0.9164    2.6145 H   0  0  0  0  0  0  0  0  0  0  0  0
    2.2358    1.6869    2.0125 H   0  0  0  0  0  0  0  0  0  0  0  0
    1.8637   -1.1162    4.0872 C   0  0  0  0  0  0  0  0  0  0  0  0
    1.8495   -0.5668    5.0511 H   0  0  0  0  0  0  0  0  0  0  0  0
    2.4164   -2.0650    4.2425 H   0  0  0  0  0  0  0  0  0  0  0  0
    0.8206   -1.3582    3.8112 H   0  0  0  0  0  0  0  0  0  0  0  0
    1.3045   -1.3678    1.0265 C   0  0  0  0  0  0  0  0  0  0  0  0
  2  6  2  0  0  0  0
  3 27  1  0  0  0  0
  6  7  1  0  0  0  0
  6  1  1  0  0  0  0
  7  8  1  6  0  0  0
  7  9  1  0  0  0  0
  7  5  1  0  0  0  0
  9 18  1  0  0  0  0
  9 10  1  0  0  0  0
 10 11  1  0  0  0  0
 10 13  1  0  0  0  0
 12 10  1  0  0  0  0
 14 15  1  0  0  0  0
 14  9  1  0  0  0  0
 16 14  1  0  0  0  0
 17 14  1  0  0  0  0
 18 19  1  0  0  0  0
 18 20  1  0  0  0  0
 21 18  1  0  0  0  0
 22  5  1  0  0  0  0
 22 24  1  0  0  0  0
 23 22  1  0  0  0  0
 24 48  1  0  0  0  0
 25 27  1  0  0  0  0
 25 24  2  0  0  0  0
 26 25  1  0  0  0  0
 27 32  2  0  0  0  0
 28  3  1  0  0  0  0
 29 28  1  0  0  0  0
 30 28  1  0  0  0  0
 31 28  1  0  0  0  0
 32 33  1  0  0  0  0
 32 34  1  0  0  0  0
 34 35  1  0  0  0  0
 35 36  1  0  0  0  0
 35 44  1  0  0  0  0
 36 39  1  0  0  0  0
 36 37  1  0  0  0  0
 38 36  1  0  0  0  0
 40 35  1  0  0  0  0
 40 41  1  0  0  0  0
 42 40  1  0  0  0  0
 43 40  1  0  0  0  0
 44 46  1  0  0  0  0
 44 45  1  0  0  0  0
 47 44  1  0  0  0  0
 48  4  1  0  0  0  0
 48 34  2  0  0  0  0
M  CHG  2   1  -1   4  -1
M  END
