1,3,4
 OpenBabel05122313063D

 33 34  0  0  1  0  0  0  0  0999 V2000
    0.5260   -2.7313    0.0445 O   0  5  0  0  0  0  0  0  0  0  0  0
    1.8682   -4.1738   -1.0635 O   0  0  0  0  0  0  0  0  0  0  0  0
    0.1637    0.8220    0.9648 O   0  5  0  0  0  0  0  0  0  0  0  0
    1.8240   -0.6746   -0.4728 N   0  0  0  0  0  2  0  0  0  0  0  0
    1.6239   -3.0668   -0.6241 C   0  0  0  0  0  0  0  0  0  0  0  0
    2.5866   -1.8746   -0.7704 C   0  0  2  0  0  0  0  0  0  0  0  0
    2.9794   -1.8500   -1.8106 H   0  0  0  0  0  0  0  0  0  0  0  0
    2.1515    0.4544   -1.0408 C   0  0  0  0  0  3  0  0  0  0  0  0
    1.5410    1.7256   -0.7787 C   0  0  0  0  0  0  0  0  0  0  0  0
    1.9538    2.8725   -1.5057 C   0  0  0  0  0  0  0  0  0  0  0  0
    1.3908    4.1195   -1.2517 C   0  0  0  0  0  0  0  0  0  0  0  0
    1.7129    5.0037   -1.8199 H   0  0  0  0  0  0  0  0  0  0  0  0
    0.3967    4.2355   -0.2523 C   0  0  0  0  0  0  0  0  0  0  0  0
   -0.0629    5.2160   -0.0529 H   0  0  0  0  0  0  0  0  0  0  0  0
   -0.0206    3.1306    0.4891 C   0  0  0  0  0  0  0  0  0  0  0  0
   -0.8107    3.2175    1.2472 H   0  0  0  0  0  0  0  0  0  0  0  0
    0.5455    1.8515    0.2454 C   0  0  0  0  0  0  0  0  0  0  0  0
    3.7926   -2.0504    0.2011 C   0  0  0  0  0  0  0  0  0  0  0  0
    3.3950   -2.1974    1.2244 H   0  0  0  0  0  0  0  0  0  0  0  0
    4.3046   -2.9829   -0.1092 H   0  0  0  0  0  0  0  0  0  0  0  0
    4.7135   -0.8599    0.1542 C   0  0  0  0  0  0  0  0  0  0  0  0
    5.7233   -0.7599   -0.8253 C   0  0  0  0  0  0  0  0  0  0  0  0
    5.8951   -1.6041   -1.5128 H   0  0  0  0  0  0  0  0  0  0  0  0
    6.5088    0.3977   -0.9301 C   0  0  0  0  0  0  0  0  0  0  0  0
    7.2976    0.4571   -1.6957 H   0  0  0  0  0  0  0  0  0  0  0  0
    6.2927    1.4771   -0.0571 C   0  0  0  0  0  0  0  0  0  0  0  0
    6.9079    2.3860   -0.1396 H   0  0  0  0  0  0  0  0  0  0  0  0
    5.2929    1.3882    0.9242 C   0  0  0  0  0  0  0  0  0  0  0  0
    5.1181    2.2287    1.6129 H   0  0  0  0  0  0  0  0  0  0  0  0
    4.5093    0.2289    1.0286 C   0  0  0  0  0  0  0  0  0  0  0  0
    3.7168    0.1607    1.7903 H   0  0  0  0  0  0  0  0  0  0  0  0
    2.9734    0.4413   -1.7858 H   0  0  0  0  0  0  0  0  0  0  0  0
    2.7339    2.7550   -2.2745 H   0  0  0  0  0  0  0  0  0  0  0  0
  2  5  2  0  0  0  0
  5  1  1  0  0  0  0
  6  7  1  6  0  0  0
  6  5  1  0  0  0  0
  6  4  1  0  0  0  0
  6 18  1  0  0  0  0
  8  9  1  0  0  0  0
  8  4  1  0  0  0  0
  9 17  1  0  0  0  0
 10 11  1  0  0  0  0
 10  9  2  0  0  0  0
 11 13  2  0  0  0  0
 12 11  1  0  0  0  0
 13 14  1  0  0  0  0
 13 15  1  0  0  0  0
 15 16  1  0  0  0  0
 17 15  2  0  0  0  0
 17  3  1  0  0  0  0
 18 19  1  0  0  0  0
 20 18  1  0  0  0  0
 21 18  1  0  0  0  0
 21 30  1  0  0  0  0
 22 21  2  0  0  0  0
 23 22  1  0  0  0  0
 24 22  1  0  0  0  0
 24 26  2  0  0  0  0
 25 24  1  0  0  0  0
 26 28  1  0  0  0  0
 27 26  1  0  0  0  0
 28 30  2  0  0  0  0
 28 29  1  0  0  0  0
 30 31  1  0  0  0  0
 32  8  1  0  0  0  0
 33 10  1  0  0  0  0
M  CHG  2   1  -1   3  -1
M  END
