2,3,6
 OpenBabel05122313063D

 44 46  0  0  0  0  0  0  0  0999 V2000
   -5.6142   -0.9799   -0.6918 O   0  0  0  0  0  0  0  0  0  0  0  0
   -1.2528    0.4030    0.6910 O   0  5  0  0  0  0  0  0  0  0  0  0
    2.5387    0.2042    1.1072 O   0  5  0  0  0  0  0  0  0  0  0  0
    9.3775   -0.5899    0.5010 O   0  0  0  0  0  0  0  0  0  0  0  0
    9.0963   -2.0030   -1.1436 O   0  0  0  0  0  0  0  0  0  0  0  0
    0.8777   -1.0345   -0.3014 N   0  0  0  0  0  2  0  0  0  0  0  0
    2.1783   -1.3252   -0.5933 N   0  0  0  0  0  0  0  0  0  0  0  0
    8.6747   -1.2413   -0.2724 N   0  0  0  0  0  0  0  0  0  0  0  0
   -8.3462   -1.3618   -0.3113 C   0  0  0  0  0  0  0  0  0  0  0  0
   -7.7149   -2.2195   -0.5833 H   0  0  0  0  0  0  0  0  0  0  0  0
   -9.7448   -1.4630   -0.3554 C   0  0  0  0  0  0  0  0  0  0  0  0
  -10.2127   -2.4117   -0.6600 H   0  0  0  0  0  0  0  0  0  0  0  0
  -10.5462   -0.3626   -0.0135 C   0  0  0  0  0  0  0  0  0  0  0  0
  -11.6431   -0.4444   -0.0480 H   0  0  0  0  0  0  0  0  0  0  0  0
   -9.9407    0.8455    0.3672 C   0  0  0  0  0  0  0  0  0  0  0  0
  -10.5608    1.7161    0.6296 H   0  0  0  0  0  0  0  0  0  0  0  0
   -8.5428    0.9500    0.4033 C   0  0  0  0  0  0  0  0  0  0  0  0
   -8.0724    1.9039    0.6920 H   0  0  0  0  0  0  0  0  0  0  0  0
   -7.7344   -0.1536    0.0702 C   0  0  0  0  0  0  0  0  0  0  0  0
   -6.2336   -0.0333    0.1745 C   0  0  0  0  0  0  0  0  0  0  0  0
   -5.9086    0.9993   -0.0884 H   0  0  0  0  0  0  0  0  0  0  0  0
   -5.9037   -0.2218    1.2241 H   0  0  0  0  0  0  0  0  0  0  0  0
   -4.2645   -1.0707   -0.7095 C   0  0  0  0  0  0  0  0  0  0  0  0
   -3.4108   -0.2543    0.0524 C   0  0  0  0  0  0  0  0  0  0  0  0
   -3.7832    0.5314    0.7203 H   0  0  0  0  0  0  0  0  0  0  0  0
   -2.0117   -0.4197   -0.0247 C   0  0  0  0  0  0  0  0  0  0  0  0
   -1.4547   -1.4256   -0.8818 C   0  0  0  0  0  0  0  0  0  0  0  0
   -2.3523   -2.2213   -1.6481 C   0  0  0  0  0  0  0  0  0  0  0  0
   -1.9294   -2.9904   -2.3130 H   0  0  0  0  0  0  0  0  0  0  0  0
   -3.7265   -2.0619   -1.5726 C   0  0  0  0  0  0  0  0  0  0  0  0
   -4.4178   -2.6812   -2.1599 H   0  0  0  0  0  0  0  0  0  0  0  0
   -0.0440   -1.6414   -1.0133 C   0  0  0  0  0  3  0  0  0  0  0  0
    0.3101   -2.3720   -1.7656 H   0  0  0  0  0  0  0  0  0  0  0  0
    2.9820   -0.6475    0.1999 C   0  0  0  0  0  0  0  0  0  0  0  0
    4.4435   -0.8135    0.0787 C   0  0  0  0  0  0  0  0  0  0  0  0
    5.3021   -0.0990    0.9439 C   0  0  0  0  0  0  0  0  0  0  0  0
    4.8586    0.5618    1.7017 H   0  0  0  0  0  0  0  0  0  0  0  0
    6.6886   -0.2383    0.8341 C   0  0  0  0  0  0  0  0  0  0  0  0
    7.3859    0.2996    1.4898 H   0  0  0  0  0  0  0  0  0  0  0  0
    7.2045   -1.0955   -0.1472 C   0  0  0  0  0  0  0  0  0  0  0  0
    6.3736   -1.8197   -1.0165 C   0  0  0  0  0  0  0  0  0  0  0  0
    6.8338   -2.4792   -1.7640 H   0  0  0  0  0  0  0  0  0  0  0  0
    4.9905   -1.6764   -0.8997 C   0  0  0  0  0  0  0  0  0  0  0  0
    4.3039   -2.2249   -1.5592 H   0  0  0  0  0  0  0  0  0  0  0  0
  1 20  1  0  0  0  0
  5  8  2  0  0  0  0
  7  6  1  0  0  0  0
  7 34  2  0  0  0  0
  8 40  1  0  0  0  0
  8  4  2  0  0  0  0
  9 19  1  0  0  0  0
 10  9  1  0  0  0  0
 11  9  2  0  0  0  0
 11 13  1  0  0  0  0
 12 11  1  0  0  0  0
 13 15  2  0  0  0  0
 14 13  1  0  0  0  0
 15 17  1  0  0  0  0
 15 16  1  0  0  0  0
 17 18  1  0  0  0  0
 19 20  1  0  0  0  0
 19 17  2  0  0  0  0
 20 22  1  0  0  0  0
 21 20  1  0  0  0  0
 23  1  1  0  0  0  0
 23 24  1  0  0  0  0
 24 25  1  0  0  0  0
 26 24  2  0  0  0  0
 26  2  1  0  0  0  0
 27 26  1  0  0  0  0
 28 30  1  0  0  0  0
 28 27  2  0  0  0  0
 29 28  1  0  0  0  0
 30 23  2  0  0  0  0
 31 30  1  0  0  0  0
 32 27  1  0  0  0  0
 32  6  1  0  0  0  0
 33 32  1  0  0  0  0
 34  3  1  0  0  0  0
 35 34  1  0  0  0  0
 35 36  1  0  0  0  0
 36 37  1  0  0  0  0
 38 36  2  0  0  0  0
 38 39  1  0  0  0  0
 40 38  1  0  0  0  0
 41 43  1  0  0  0  0
 41 40  2  0  0  0  0
 42 41  1  0  0  0  0
 43 35  2  0  0  0  0
 44 43  1  0  0  0  0
M  CHG  2   2  -1   3  -1
M  END
