1,2,4
 OpenBabel05122313063D

 28 28  0  0  1  0  0  0  0  0999 V2000
   -3.0347    0.4384    0.0447 O   0  0  0  0  0  1  0  0  0  0  0  0
    0.2348   -1.4277    0.1617 O   0  5  0  0  0  0  0  0  0  0  0  0
    5.4821    0.3161   -0.0414 O   0  0  0  0  0  0  0  0  0  0  0  0
   -0.5689    1.1935    0.1116 N   0  0  0  0  0  2  0  0  0  0  0  0
   -2.8483    1.7761   -0.3876 C   0  0  2  0  0  0  0  0  0  0  0  0
   -1.5430    2.2624    0.2620 C   0  0  0  0  0  0  0  0  0  0  0  0
    0.7047    1.4472    0.1181 C   0  0  0  0  0  3  0  0  0  0  0  0
    1.7528    0.4582    0.0595 C   0  0  0  0  0  0  0  0  0  0  0  0
    1.4649   -0.9409    0.1066 C   0  0  0  0  0  0  0  0  0  0  0  0
    2.5546   -1.8505    0.1194 C   0  0  0  0  0  0  0  0  0  0  0  0
    3.8664   -1.3970    0.0654 C   0  0  0  0  0  0  0  0  0  0  0  0
    4.1601   -0.0092    0.0096 C   0  0  0  0  0  0  0  0  0  0  0  0
    3.1039    0.9056    0.0151 C   0  0  0  0  0  0  0  0  0  0  0  0
   -4.0600    2.6206   -0.0223 C   0  0  0  0  0  0  0  0  0  0  0  0
    5.8253    1.6858   -0.0963 C   0  0  0  0  0  0  0  0  0  0  0  0
   -2.7065    1.7743   -1.4966 H   0  0  0  0  0  0  0  0  0  0  0  0
   -1.7314    2.4246    1.3487 H   0  0  0  0  0  0  0  0  0  0  0  0
   -1.1836    3.2232   -0.1685 H   0  0  0  0  0  0  0  0  0  0  0  0
    1.0390    2.5054    0.1954 H   0  0  0  0  0  0  0  0  0  0  0  0
    2.3241   -2.9242    0.1642 H   0  0  0  0  0  0  0  0  0  0  0  0
    4.7104   -2.1025    0.0647 H   0  0  0  0  0  0  0  0  0  0  0  0
    3.2887    1.9885   -0.0154 H   0  0  0  0  0  0  0  0  0  0  0  0
   -4.2128    2.6281    1.0765 H   0  0  0  0  0  0  0  0  0  0  0  0
   -4.9688    2.2024   -0.4952 H   0  0  0  0  0  0  0  0  0  0  0  0
   -3.9347    3.6661   -0.3693 H   0  0  0  0  0  0  0  0  0  0  0  0
    5.4093    2.1820   -1.0028 H   0  0  0  0  0  0  0  0  0  0  0  0
    5.4721    2.2390    0.8040 H   0  0  0  0  0  0  0  0  0  0  0  0
    6.9292    1.7337   -0.1359 H   0  0  0  0  0  0  0  0  0  0  0  0
  3 12  1  0  0  0  0
  4  7  1  0  0  0  0
  4  6  1  0  0  0  0
  5 16  1  6  0  0  0
  5 14  1  0  0  0  0
  5  1  1  0  0  0  0
  5  6  1  0  0  0  0
  6 17  1  0  0  0  0
  7 19  1  0  0  0  0
  8  9  1  0  0  0  0
  8  7  1  0  0  0  0
  9 10  2  0  0  0  0
  9  2  1  0  0  0  0
 10 20  1  0  0  0  0
 11 10  1  0  0  0  0
 12 13  1  0  0  0  0
 12 11  2  0  0  0  0
 13  8  2  0  0  0  0
 14 23  1  0  0  0  0
 15  3  1  0  0  0  0
 15 27  1  0  0  0  0
 18  6  1  0  0  0  0
 21 11  1  0  0  0  0
 22 13  1  0  0  0  0
 24 14  1  0  0  0  0
 25 14  1  0  0  0  0
 26 15  1  0  0  0  0
 28 15  1  0  0  0  0
M  CHG  1   2  -1
M  END
