1,2,6
 OpenBabel05122313063D

 29 28  0  0  1  0  0  0  0  0999 V2000
   -0.6779    1.7087    1.4031 O   0  0  0  0  0  1  0  0  0  0  0  0
    0.0446    1.3978   -1.4418 O   0  5  0  0  0  0  0  0  0  0  0  0
    1.3655    3.0916   -2.1422 O   0  0  0  0  0  0  0  0  0  0  0  0
    4.9306   -0.8322   -1.2118 O   0  0  0  0  0  0  0  0  0  0  0  0
    1.3012    2.7840    1.0973 N   0  0  0  0  0  0  0  0  0  0  0  0
    2.0744    0.6181    0.2886 N   0  0  0  0  0  0  0  0  0  0  0  0
    4.2436   -0.3827    0.9228 N   0  0  0  0  0  0  0  0  0  0  0  0
   -0.7522    3.9661    0.5265 C   0  0  0  0  0  0  0  0  0  0  0  0
   -0.0668    2.7387    1.0630 C   0  0  1  0  0  3  0  0  0  0  0  0
    1.1904    1.9974   -1.6023 C   0  0  0  0  0  0  0  0  0  0  0  0
    2.4086    1.2252   -1.0180 C   0  0  0  0  0  0  0  0  0  0  0  0
    2.0885    1.6098    1.3873 C   0  0  0  0  0  0  0  0  0  0  0  0
    2.8383   -0.5957    0.6433 C   0  0  0  0  0  0  0  0  0  0  0  0
    5.2117   -0.5614   -0.0490 C   0  0  0  0  0  0  0  0  0  0  0  0
    6.6473   -0.4002    0.4270 C   0  0  0  0  0  0  0  0  0  0  0  0
    1.7570    3.5621    0.6148 H   0  0  0  0  0  0  0  0  0  0  0  0
    4.5418   -0.2399    1.8877 H   0  0  0  0  0  0  0  0  0  0  0  0
   -0.2505    4.9042    0.8326 H   0  0  0  0  0  0  0  0  0  0  0  0
   -0.7076    3.8945   -0.5830 H   0  0  0  0  0  0  0  0  0  0  0  0
   -1.8070    3.9733    0.8524 H   0  0  0  0  0  0  0  0  0  0  0  0
    3.2815    1.9108   -0.9512 H   0  0  0  0  0  0  0  0  0  0  0  0
    2.6832    0.4040   -1.7087 H   0  0  0  0  0  0  0  0  0  0  0  0
    1.6764    1.1113    2.2888 H   0  0  0  0  0  0  0  0  0  0  0  0
    3.1304    1.9443    1.5924 H   0  0  0  0  0  0  0  0  0  0  0  0
    2.3348   -1.0606    1.5141 H   0  0  0  0  0  0  0  0  0  0  0  0
    2.7548   -1.2832   -0.2193 H   0  0  0  0  0  0  0  0  0  0  0  0
    6.7459   -0.1130    1.4918 H   0  0  0  0  0  0  0  0  0  0  0  0
    7.1861   -1.3533    0.2575 H   0  0  0  0  0  0  0  0  0  0  0  0
    7.1434    0.3638   -0.2026 H   0  0  0  0  0  0  0  0  0  0  0  0
  3 10  2  0  0  0  0
  4 14  2  0  0  0  0
  5 12  1  0  0  0  0
  6 13  1  0  0  0  0
  6 12  1  0  0  0  0
  7 17  1  0  0  0  0
  8 18  1  0  0  0  0
  8 20  1  0  0  0  0
  8  9  1  0  0  0  0
  9  5  1  0  0  0  0
  9  1  1  6  0  0  0
 10  2  1  0  0  0  0
 10 11  1  0  0  0  0
 11 21  1  0  0  0  0
 11  6  1  0  0  0  0
 12 24  1  0  0  0  0
 12 23  1  0  0  0  0
 13  7  1  0  0  0  0
 13 25  1  0  0  0  0
 14 15  1  0  0  0  0
 14  7  1  0  0  0  0
 15 27  1  0  0  0  0
 16  5  1  0  0  0  0
 19  8  1  0  0  0  0
 22 11  1  0  0  0  0
 26 13  1  0  0  0  0
 28 15  1  0  0  0  0
 29 15  1  0  0  0  0
M  CHG  1   2  -1
M  END
