1,3,4
 OpenBabel05122313063D

 56 58  0  0  1  0  0  0  0  0999 V2000
    1.0455    0.9226   -0.2471 N   0  0  0  0  0  2  0  0  0  0  0  0
   -1.5041    0.8085    1.2005 N   0  0  0  0  0  0  0  0  0  0  0  0
    1.6836   -1.5611   -1.0998 O   0  5  0  0  0  0  0  0  0  0  0  0
   -1.1152   -0.8523   -1.2354 O   0  5  0  0  0  0  0  0  0  0  0  0
    2.9613   -1.2008   -0.9803 C   0  0  0  0  0  0  0  0  0  0  0  0
    3.9432   -2.1220   -1.4084 C   0  0  0  0  0  0  0  0  0  0  0  0
    3.5941   -3.0732   -1.8338 H   0  0  0  0  0  0  0  0  0  0  0  0
    5.2981   -1.8350   -1.2508 C   0  0  0  0  0  0  0  0  0  0  0  0
    6.0536   -2.5699   -1.5676 H   0  0  0  0  0  0  0  0  0  0  0  0
    5.6926   -0.6132   -0.6730 C   0  0  0  0  0  0  0  0  0  0  0  0
    6.7582   -0.3833   -0.5300 H   0  0  0  0  0  0  0  0  0  0  0  0
    4.7264    0.3152   -0.2871 C   0  0  0  0  0  0  0  0  0  0  0  0
    5.0682    1.2616    0.1498 H   0  0  0  0  0  0  0  0  0  0  0  0
    3.3328    0.0720   -0.4342 C   0  0  0  0  0  0  0  0  0  0  0  0
    2.3421    1.1289   -0.1410 C   0  0  2  0  0  3  0  0  0  0  0  0
    2.8896    2.4431    0.3965 C   0  0  0  0  0  0  0  0  0  0  0  0
    2.2174    3.2824    0.1565 H   0  0  0  0  0  0  0  0  0  0  0  0
    3.8538    2.6925   -0.0828 H   0  0  0  0  0  0  0  0  0  0  0  0
    3.0499    2.3352    1.9258 C   0  0  0  0  0  0  0  0  0  0  0  0
    3.3982    3.2989    2.3470 H   0  0  0  0  0  0  0  0  0  0  0  0
    3.7753    1.5460    2.2032 H   0  0  0  0  0  0  0  0  0  0  0  0
    2.0886    2.0627    2.4049 H   0  0  0  0  0  0  0  0  0  0  0  0
    0.1337    2.0813   -0.1368 C   0  0  1  0  0  0  0  0  0  0  0  0
    0.4204    2.6717    0.7609 H   0  0  0  0  0  0  0  0  0  0  0  0
    0.2179    2.9710   -1.3966 C   0  0  0  0  0  0  0  0  0  0  0  0
    1.2727    3.2132   -1.6342 H   0  0  0  0  0  0  0  0  0  0  0  0
   -0.1629    2.3786   -2.2564 H   0  0  0  0  0  0  0  0  0  0  0  0
   -0.6019    4.2541   -1.2191 C   0  0  0  0  0  0  0  0  0  0  0  0
   -0.5482    4.8686   -2.1416 H   0  0  0  0  0  0  0  0  0  0  0  0
   -0.1435    4.8646   -0.4087 H   0  0  0  0  0  0  0  0  0  0  0  0
   -2.0604    3.9474   -0.8605 C   0  0  0  0  0  0  0  0  0  0  0  0
   -2.6125    4.8850   -0.6423 H   0  0  0  0  0  0  0  0  0  0  0  0
   -2.5613    3.4844   -1.7391 H   0  0  0  0  0  0  0  0  0  0  0  0
   -2.1578    2.9861    0.3280 C   0  0  0  0  0  0  0  0  0  0  0  0
   -1.7885    3.4641    1.2616 H   0  0  0  0  0  0  0  0  0  0  0  0
   -3.2126    2.6966    0.5124 H   0  0  0  0  0  0  0  0  0  0  0  0
   -1.3446    1.7003    0.0683 C   0  0  2  0  0  0  0  0  0  0  0  0
   -1.7237    1.2821   -0.8872 H   0  0  0  0  0  0  0  0  0  0  0  0
   -2.3987   -0.1331    1.1805 C   0  0  0  0  0  0  0  0  0  0  0  0
   -2.6775   -0.9083    2.4476 C   0  0  0  0  0  0  0  0  0  0  0  0
   -2.3311   -1.9501    2.2630 H   0  0  0  0  0  0  0  0  0  0  0  0
   -3.7830   -0.9962    2.5451 H   0  0  0  0  0  0  0  0  0  0  0  0
   -2.0468   -0.3306    3.7084 C   0  0  0  0  0  0  0  0  0  0  0  0
   -2.3131   -0.9447    4.5913 H   0  0  0  0  0  0  0  0  0  0  0  0
   -2.3866    0.7095    3.8856 H   0  0  0  0  0  0  0  0  0  0  0  0
   -0.9453   -0.3084    3.6128 H   0  0  0  0  0  0  0  0  0  0  0  0
   -3.1704   -0.5308   -0.0412 C   0  0  0  0  0  0  0  0  0  0  0  0
   -4.5761   -0.5828   -0.0611 C   0  0  0  0  0  0  0  0  0  0  0  0
   -5.1347   -0.3115    0.8481 H   0  0  0  0  0  0  0  0  0  0  0  0
   -5.2717   -0.9559   -1.2211 C   0  0  0  0  0  0  0  0  0  0  0  0
   -6.3712   -0.9815   -1.2186 H   0  0  0  0  0  0  0  0  0  0  0  0
   -4.5561   -1.3025   -2.3793 C   0  0  0  0  0  0  0  0  0  0  0  0
   -5.0943   -1.6083   -3.2894 H   0  0  0  0  0  0  0  0  0  0  0  0
   -3.1560   -1.2702   -2.3839 C   0  0  0  0  0  0  0  0  0  0  0  0
   -2.5737   -1.5494   -3.2735 H   0  0  0  0  0  0  0  0  0  0  0  0
   -2.4542   -0.8848   -1.2233 C   0  0  0  0  0  0  0  0  0  0  0  0
  1 23  1  0  0  0  0
  3  5  1  0  0  0  0
  4 56  1  0  0  0  0
  5 14  1  0  0  0  0
  6  8  1  0  0  0  0
  6  5  2  0  0  0  0
  7  6  1  0  0  0  0
  8 10  2  0  0  0  0
  9  8  1  0  0  0  0
 10 11  1  0  0  0  0
 10 12  1  0  0  0  0
 12 13  1  0  0  0  0
 14 12  2  0  0  0  0
 14 15  1  0  0  0  0
 15  1  1  1  0  0  0
 15 16  1  0  0  0  0
 16 19  1  0  0  0  0
 17 16  1  0  0  0  0
 18 16  1  0  0  0  0
 19 21  1  0  0  0  0
 19 20  1  0  0  0  0
 19 22  1  0  0  0  0
 23 37  1  0  0  0  0
 23 24  1  1  0  0  0
 25 28  1  0  0  0  0
 25 23  1  0  0  0  0
 26 25  1  0  0  0  0
 27 25  1  0  0  0  0
 28 31  1  0  0  0  0
 28 30  1  0  0  0  0
 29 28  1  0  0  0  0
 31 32  1  0  0  0  0
 31 34  1  0  0  0  0
 33 31  1  0  0  0  0
 34 36  1  0  0  0  0
 34 35  1  0  0  0  0
 37 38  1  6  0  0  0
 37 34  1  0  0  0  0
 37  2  1  0  0  0  0
 39  2  2  0  0  0  0
 39 40  1  0  0  0  0
 40 42  1  0  0  0  0
 40 43  1  0  0  0  0
 41 40  1  0  0  0  0
 43 45  1  0  0  0  0
 43 44  1  0  0  0  0
 46 43  1  0  0  0  0
 47 39  1  0  0  0  0
 48 47  1  0  0  0  0
 48 49  1  0  0  0  0
 50 51  1  0  0  0  0
 50 48  2  0  0  0  0
 52 50  1  0  0  0  0
 53 52  1  0  0  0  0
 54 52  2  0  0  0  0
 54 56  1  0  0  0  0
 55 54  1  0  0  0  0
 56 47  2  0  0  0  0
M  CHG  2   3  -1   4  -1
M  END
