1,3,4
 OpenBabel05122313063D

 38 39  0  0  0  0  0  0  0  0999 V2000
   -0.3040   -1.7617   -0.0110 N   0  0  0  0  0  2  0  0  0  0  0  0
   -1.6484   -1.9233    0.1224 N   0  0  0  0  0  0  0  0  0  0  0  0
    1.9743   -0.4201   -0.1594 O   0  5  0  0  0  0  0  0  0  0  0  0
   -1.5922    0.1998   -0.7389 O   0  5  0  0  0  0  0  0  0  0  0  0
    4.6184   -0.3465   -0.1111 O   0  0  0  0  0  0  0  0  0  0  0  0
    1.8998   -2.7576    0.3474 C   0  0  0  0  0  0  0  0  0  0  0  0
    2.6079   -1.5480    0.0898 C   0  0  0  0  0  0  0  0  0  0  0  0
    4.0389   -1.5467    0.1401 C   0  0  0  0  0  0  0  0  0  0  0  0
    4.7199   -2.7370    0.4349 C   0  0  0  0  0  0  0  0  0  0  0  0
    5.8175   -2.7472    0.4693 H   0  0  0  0  0  0  0  0  0  0  0  0
    4.0089   -3.9323    0.6904 C   0  0  0  0  0  0  0  0  0  0  0  0
    4.5674   -4.8515    0.9191 H   0  0  0  0  0  0  0  0  0  0  0  0
    2.6200   -3.9457    0.6549 C   0  0  0  0  0  0  0  0  0  0  0  0
    2.0589   -4.8707    0.8558 H   0  0  0  0  0  0  0  0  0  0  0  0
    6.0387   -0.2595   -0.0925 C   0  0  0  0  0  0  0  0  0  0  0  0
    6.4723   -0.9643   -0.8408 H   0  0  0  0  0  0  0  0  0  0  0  0
    6.4255   -0.5643    0.9088 H   0  0  0  0  0  0  0  0  0  0  0  0
    6.4214    1.1734   -0.4104 C   0  0  0  0  0  0  0  0  0  0  0  0
    6.0394    1.4667   -1.4080 H   0  0  0  0  0  0  0  0  0  0  0  0
    7.5234    1.2866   -0.4076 H   0  0  0  0  0  0  0  0  0  0  0  0
    5.9942    1.8672    0.3401 H   0  0  0  0  0  0  0  0  0  0  0  0
    0.4632   -2.7644    0.3544 C   0  0  0  0  0  3  0  0  0  0  0  0
   -0.0611   -3.6731    0.7025 H   0  0  0  0  0  0  0  0  0  0  0  0
   -2.2655   -0.8323   -0.2960 C   0  0  0  0  0  0  0  0  0  0  0  0
   -3.7396   -0.7549   -0.2680 C   0  0  0  0  0  0  0  0  0  0  0  0
   -4.5061   -1.8397    0.2114 C   0  0  0  0  0  0  0  0  0  0  0  0
   -3.9748   -2.7378    0.5596 H   0  0  0  0  0  0  0  0  0  0  0  0
   -5.9078   -1.7785    0.2458 C   0  0  0  0  0  0  0  0  0  0  0  0
   -6.5375   -0.5992   -0.2130 C   0  0  0  0  0  0  0  0  0  0  0  0
   -7.6374   -0.5328   -0.1937 H   0  0  0  0  0  0  0  0  0  0  0  0
   -5.7848    0.4828   -0.6911 C   0  0  0  0  0  0  0  0  0  0  0  0
   -6.2961    1.3912   -1.0449 H   0  0  0  0  0  0  0  0  0  0  0  0
   -4.3858    0.4123   -0.7213 C   0  0  0  0  0  0  0  0  0  0  0  0
   -3.7746    1.2468   -1.0927 H   0  0  0  0  0  0  0  0  0  0  0  0
   -6.7285   -2.9378    0.7544 C   0  0  0  0  0  0  0  0  0  0  0  0
   -7.4010   -3.3322   -0.0360 H   0  0  0  0  0  0  0  0  0  0  0  0
   -7.3762   -2.6325    1.6027 H   0  0  0  0  0  0  0  0  0  0  0  0
   -6.0862   -3.7705    1.0992 H   0  0  0  0  0  0  0  0  0  0  0  0
  1  2  1  0  0  0  0
  1 22  1  0  0  0  0
  3  7  1  0  0  0  0
  4 24  1  0  0  0  0
  5 15  1  0  0  0  0
  5  8  1  0  0  0  0
  6 22  1  0  0  0  0
  6 13  1  0  0  0  0
  7  8  1  0  0  0  0
  7  6  2  0  0  0  0
  8  9  2  0  0  0  0
  9 10  1  0  0  0  0
  9 11  1  0  0  0  0
 11 12  1  0  0  0  0
 13 11  2  0  0  0  0
 13 14  1  0  0  0  0
 15 17  1  0  0  0  0
 16 15  1  0  0  0  0
 18 20  1  0  0  0  0
 18 15  1  0  0  0  0
 18 21  1  0  0  0  0
 19 18  1  0  0  0  0
 22 23  1  0  0  0  0
 24 25  1  0  0  0  0
 24  2  2  0  0  0  0
 25 26  1  0  0  0  0
 26 28  2  0  0  0  0
 26 27  1  0  0  0  0
 28 35  1  0  0  0  0
 29 30  1  0  0  0  0
 29 28  1  0  0  0  0
 31 29  2  0  0  0  0
 32 31  1  0  0  0  0
 33 31  1  0  0  0  0
 33 25  2  0  0  0  0
 34 33  1  0  0  0  0
 35 38  1  0  0  0  0
 35 37  1  0  0  0  0
 36 35  1  0  0  0  0
M  CHG  2   3  -1   4  -1
M  END
