16,17,25
 OpenBabel05122313063D

 46 45  0  0  1  0  0  0  0  0999 V2000
   -4.7869    1.8903   -1.6582 C   0  0  0  0  0  0  0  0  0  0  0  0
   -4.1733    2.1842   -2.5330 H   0  0  0  0  0  0  0  0  0  0  0  0
   -5.8321    2.1955   -1.8609 H   0  0  0  0  0  0  0  0  0  0  0  0
   -4.7629    0.7908   -1.5453 H   0  0  0  0  0  0  0  0  0  0  0  0
   -4.3206    4.1107   -0.5487 C   0  0  0  0  0  0  0  0  0  0  0  0
   -3.9123    4.6071    0.3531 H   0  0  0  0  0  0  0  0  0  0  0  0
   -5.3634    4.4536   -0.6913 H   0  0  0  0  0  0  0  0  0  0  0  0
   -3.7264    4.4280   -1.4276 H   0  0  0  0  0  0  0  0  0  0  0  0
   -5.0361    2.1432    0.8645 C   0  0  0  0  0  0  0  0  0  0  0  0
   -4.5990    2.6159    1.7662 H   0  0  0  0  0  0  0  0  0  0  0  0
   -5.0089    1.0441    0.9790 H   0  0  0  0  0  0  0  0  0  0  0  0
   -6.0952    2.4600    0.7953 H   0  0  0  0  0  0  0  0  0  0  0  0
   -4.2933    2.5924   -0.3933 C   0  0  0  0  0  0  0  0  0  0  0  0
   -2.8263    2.3150   -0.2208 O   0  0  0  0  0  0  0  0  0  0  0  0
   -2.3370    1.1004   -0.0573 C   0  0  1  0  0  3  0  0  0  0  0  0
   -3.0286    0.0135   -0.0124 O   0  0  0  0  0  1  0  0  0  0  0  0
   -1.0318    0.8932    0.0683 N   0  0  0  0  0  2  0  0  0  0  0  0
    0.1204    1.7437    0.0311 C   0  0  1  0  0  0  0  0  0  0  0  0
    0.1970    2.2838   -0.9447 H   0  0  0  0  0  0  0  0  0  0  0  0
    0.1824    2.7758    1.1695 C   0  0  0  0  0  0  0  0  0  0  0  0
   -0.6995    3.4404    1.1024 H   0  0  0  0  0  0  0  0  0  0  0  0
    1.0904    3.4078    1.1035 H   0  0  0  0  0  0  0  0  0  0  0  0
    0.1723    2.2719    2.1559 H   0  0  0  0  0  0  0  0  0  0  0  0
    1.2722    0.7253    0.0868 C   0  0  1  0  0  3  0  0  0  0  0  0
    1.0051   -0.5129    0.1825 O   0  0  0  0  0  1  0  0  0  0  0  0
    2.5264    1.1610    0.0325 N   0  0  0  0  0  0  0  0  0  0  0  0
    2.7433    2.1702    0.0152 H   0  0  0  0  0  0  0  0  0  0  0  0
    3.7150    0.3158    0.0804 C   0  0  1  0  0  0  0  0  0  0  0  0
    3.5940   -0.4420    0.8828 H   0  0  0  0  0  0  0  0  0  0  0  0
    3.9518   -0.4314   -1.2697 C   0  0  0  0  0  0  0  0  0  0  0  0
    2.9606   -0.8783   -1.5032 H   0  0  0  0  0  0  0  0  0  0  0  0
    4.9526   -1.5805   -1.1224 C   0  0  0  0  0  0  0  0  0  0  0  0
    4.6508   -2.2846   -0.3205 H   0  0  0  0  0  0  0  0  0  0  0  0
    5.9673   -1.2099   -0.8806 H   0  0  0  0  0  0  0  0  0  0  0  0
    5.0154   -2.1520   -2.0694 H   0  0  0  0  0  0  0  0  0  0  0  0
    4.3288    0.5344   -2.3973 C   0  0  0  0  0  0  0  0  0  0  0  0
    3.6093    1.3731   -2.4867 H   0  0  0  0  0  0  0  0  0  0  0  0
    4.3497    0.0055   -3.3701 H   0  0  0  0  0  0  0  0  0  0  0  0
    5.3377    0.9692   -2.2390 H   0  0  0  0  0  0  0  0  0  0  0  0
    4.8521    1.2749    0.4505 C   0  0  0  0  0  0  0  0  0  0  0  0
    4.7229    2.4889    0.4124 O   0  0  0  0  0  0  0  0  0  0  0  0
    5.9695    0.6311    0.7856 O   0  0  0  0  0  0  0  0  0  0  0  0
    7.1093    1.4615    1.1039 C   0  0  0  0  0  0  0  0  0  0  0  0
    7.9276    0.7644    1.3503 H   0  0  0  0  0  0  0  0  0  0  0  0
    6.8768    2.1156    1.9662 H   0  0  0  0  0  0  0  0  0  0  0  0
    7.3785    2.0932    0.2354 H   0  0  0  0  0  0  0  0  0  0  0  0
  1  4  1  0  0  0  0
  1 13  1  0  0  0  0
  2  1  1  0  0  0  0
  3  1  1  0  0  0  0
  5 13  1  0  0  0  0
  5  6  1  0  0  0  0
  7  5  1  0  0  0  0
  8  5  1  0  0  0  0
  9 11  1  0  0  0  0
  9 10  1  0  0  0  0
 12  9  1  0  0  0  0
 13 14  1  0  0  0  0
 13  9  1  0  0  0  0
 14 15  1  0  0  0  0
 15 16  1  6  0  0  0
 15 17  1  0  0  0  0
 18 19  1  6  0  0  0
 18 17  1  0  0  0  0
 18 24  1  0  0  0  0
 18 20  1  0  0  0  0
 20 23  1  0  0  0  0
 21 20  1  0  0  0  0
 22 20  1  0  0  0  0
 24 25  1  6  0  0  0
 26 28  1  0  0  0  0
 26 24  1  0  0  0  0
 27 26  1  0  0  0  0
 28 40  1  0  0  0  0
 28 29  1  1  0  0  0
 30 32  1  0  0  0  0
 30 28  1  0  0  0  0
 31 30  1  0  0  0  0
 32 34  1  0  0  0  0
 32 33  1  0  0  0  0
 35 32  1  0  0  0  0
 36 39  1  0  0  0  0
 36 30  1  0  0  0  0
 37 36  1  0  0  0  0
 38 36  1  0  0  0  0
 40 42  1  0  0  0  0
 41 40  2  0  0  0  0
 42 43  1  0  0  0  0
 43 44  1  0  0  0  0
 43 45  1  0  0  0  0
 46 43  1  0  0  0  0
M  END
