1,3,6
 OpenBabel05122313063D

 34 35  0  0  1  0  0  0  0  0999 V2000
   -1.6188    1.7620   -0.6350 O   0  5  0  0  0  0  0  0  0  0  0  0
   -4.6525    4.5286   -2.8879 O   0  0  0  0  0  0  0  0  0  0  0  0
    1.5649   -1.3936   -0.5377 O   0  0  0  0  0  1  0  0  0  0  0  0
    5.5473   -5.4053   -3.4756 O   0  0  0  0  0  0  0  0  0  0  0  0
    5.8420   -5.2361   -4.3900 H   0  0  0  0  0  0  0  0  0  0  0  0
    0.1486    0.0950   -2.3102 N   0  0  0  0  0  2  0  0  0  0  0  0
    1.0693   -0.8266   -2.6973 N   0  0  0  0  0  0  0  0  0  0  0  0
    1.1631   -1.0491   -3.6959 H   0  0  0  0  0  0  0  0  0  0  0  0
   -2.0642    2.1541   -1.7745 C   0  0  0  0  0  0  0  0  0  0  0  0
   -3.1162    3.1234   -1.8151 C   0  0  0  0  0  0  0  0  0  0  0  0
   -3.4995    3.4992   -0.8568 H   0  0  0  0  0  0  0  0  0  0  0  0
   -3.6576    3.6039   -3.0064 C   0  0  0  0  0  0  0  0  0  0  0  0
   -3.1760    3.1335   -4.2649 C   0  0  0  0  0  0  0  0  0  0  0  0
   -3.5892    3.4979   -5.2132 H   0  0  0  0  0  0  0  0  0  0  0  0
   -2.1598    2.1911   -4.2652 C   0  0  0  0  0  0  0  0  0  0  0  0
   -1.7804    1.8186   -5.2316 H   0  0  0  0  0  0  0  0  0  0  0  0
   -1.5741    1.6733   -3.0736 C   0  0  0  0  0  0  0  0  0  0  0  0
   -5.2344    5.0593   -4.0612 C   0  0  0  0  0  0  0  0  0  0  0  0
   -6.0029    5.7827   -3.7293 H   0  0  0  0  0  0  0  0  0  0  0  0
   -5.7258    4.2739   -4.6789 H   0  0  0  0  0  0  0  0  0  0  0  0
   -4.4903    5.5933   -4.6944 H   0  0  0  0  0  0  0  0  0  0  0  0
   -0.5456    0.7000   -3.2475 C   0  0  0  0  0  3  0  0  0  0  0  0
   -0.3198    0.4296   -4.3061 H   0  0  0  0  0  0  0  0  0  0  0  0
    1.7668   -1.5452   -1.7586 C   0  0  2  0  0  3  0  0  0  0  0  0
    2.7574   -2.5245   -2.2797 C   0  0  0  0  0  0  0  0  0  0  0  0
    3.1787   -3.5553   -1.4096 C   0  0  0  0  0  0  0  0  0  0  0  0
    2.7540   -3.5792   -0.3957 H   0  0  0  0  0  0  0  0  0  0  0  0
    4.1042   -4.5124   -1.8212 C   0  0  0  0  0  0  0  0  0  0  0  0
    4.4299   -5.3206   -1.1509 H   0  0  0  0  0  0  0  0  0  0  0  0
    4.6486   -4.4526   -3.1223 C   0  0  0  0  0  0  0  0  0  0  0  0
    4.2543   -3.4150   -3.9932 C   0  0  0  0  0  0  0  0  0  0  0  0
    4.6971   -3.3464   -5.0004 H   0  0  0  0  0  0  0  0  0  0  0  0
    3.3213   -2.4621   -3.5717 C   0  0  0  0  0  0  0  0  0  0  0  0
    3.0683   -1.6396   -4.2591 H   0  0  0  0  0  0  0  0  0  0  0  0
  4 30  1  0  0  0  0
  5  4  1  0  0  0  0
  7  6  1  0  0  0  0
  7 24  1  0  0  0  0
  8  7  1  0  0  0  0
  9  1  1  0  0  0  0
 10  9  1  0  0  0  0
 10 11  1  0  0  0  0
 12  2  1  0  0  0  0
 12 10  2  0  0  0  0
 13 12  1  0  0  0  0
 14 13  1  0  0  0  0
 15 13  2  0  0  0  0
 15 17  1  0  0  0  0
 16 15  1  0  0  0  0
 17  9  2  0  0  0  0
 18 19  1  0  0  0  0
 18  2  1  0  0  0  0
 20 18  1  0  0  0  0
 21 18  1  0  0  0  0
 22 17  1  0  0  0  0
 22  6  1  0  0  0  0
 23 22  1  0  0  0  0
 24  3  1  6  0  0  0
 25 24  1  0  0  0  0
 25 26  1  0  0  0  0
 26 27  1  0  0  0  0
 28 26  2  0  0  0  0
 28 29  1  0  0  0  0
 30 28  1  0  0  0  0
 31 33  1  0  0  0  0
 31 30  2  0  0  0  0
 32 31  1  0  0  0  0
 33 25  2  0  0  0  0
 34 33  1  0  0  0  0
M  CHG  1   1  -1
M  END
