7,10,13
 OpenBabel05122313063D

 32 33  0  0  1  0  0  0  0  0999 V2000
   -6.3969    1.3042   -0.1994 N   0  0  0  0  0  0  0  0  0  0  0  0
   -4.6306   -0.3480   -0.3434 C   0  0  0  0  0  0  0  0  0  0  0  0
   -4.3326   -1.3989   -0.4655 H   0  0  0  0  0  0  0  0  0  0  0  0
   -1.2992    1.2111   -0.0114 N   0  0  0  0  0  0  0  0  0  0  0  0
   -5.9803    0.0360   -0.3419 C   0  0  0  0  0  0  0  0  0  0  0  0
   -6.7686   -0.7285   -0.4635 H   0  0  0  0  0  0  0  0  0  0  0  0
   -0.0361    0.6789   -0.0605 N   0  0  0  0  0  2  0  0  0  0  0  0
   -5.4520    2.2504   -0.0545 C   0  0  0  0  0  0  0  0  0  0  0  0
   -5.8126    3.2885    0.0585 H   0  0  0  0  0  0  0  0  0  0  0  0
   -1.9137   -0.9953   -0.3002 O   0  5  0  0  0  0  0  0  0  0  0  0
   -4.0766    1.9861   -0.0424 C   0  0  0  0  0  0  0  0  0  0  0  0
   -3.3376    2.7908    0.0753 H   0  0  0  0  0  0  0  0  0  0  0  0
    1.8335   -1.2861    0.1668 O   0  5  0  0  0  0  0  0  0  0  0  0
   -3.6486    0.6503   -0.1881 C   0  0  0  0  0  0  0  0  0  0  0  0
   -2.2172    0.2923   -0.1739 C   0  0  0  0  0  0  0  0  0  0  0  0
    3.3657    3.2456   -0.2722 O   0  0  0  0  0  0  0  0  0  0  0  0
    0.9826    1.5362    0.0460 C   0  0  2  0  0  3  0  0  0  0  0  0
    4.7724    1.5291   -0.0969 O   0  0  0  0  0  0  0  0  0  0  0  0
    0.6960    3.0006    0.2159 C   0  0  0  0  0  0  0  0  0  0  0  0
    0.9306    3.5413   -0.7230 H   0  0  0  0  0  0  0  0  0  0  0  0
    1.3606    3.4459    0.9775 H   0  0  0  0  0  0  0  0  0  0  0  0
   -0.3669    3.1446    0.4651 H   0  0  0  0  0  0  0  0  0  0  0  0
    2.3584    1.0597   -0.0039 C   0  0  0  0  0  0  0  0  0  0  0  0
    3.4392    2.0444   -0.1322 C   0  0  0  0  0  0  0  0  0  0  0  0
    5.0706    0.2240    0.0053 C   0  0  0  0  0  0  0  0  0  0  0  0
    6.5379   -0.0429    0.0102 C   0  0  0  0  0  0  0  0  0  0  0  0
    6.9973    0.3427   -0.9233 H   0  0  0  0  0  0  0  0  0  0  0  0
    6.7481   -1.1234    0.1010 H   0  0  0  0  0  0  0  0  0  0  0  0
    7.0203    0.4973    0.8508 H   0  0  0  0  0  0  0  0  0  0  0  0
    4.0820   -0.7195    0.0881 C   0  0  0  0  0  0  0  0  0  0  0  0
    4.3136   -1.7884    0.1645 H   0  0  0  0  0  0  0  0  0  0  0  0
    2.7090   -0.3144    0.0726 C   0  0  0  0  0  0  0  0  0  0  0  0
  1  8  1  0  0  0  0
  2  5  1  0  0  0  0
  2 14  2  0  0  0  0
  3  2  1  0  0  0  0
  5  1  2  0  0  0  0
  6  5  1  0  0  0  0
  7  4  1  0  0  0  0
  8 11  2  0  0  0  0
  8  9  1  0  0  0  0
 10 15  1  0  0  0  0
 11 12  1  0  0  0  0
 14 15  1  0  0  0  0
 14 11  1  0  0  0  0
 15  4  2  0  0  0  0
 16 24  2  0  0  0  0
 17  7  1  6  0  0  0
 17 19  1  0  0  0  0
 18 25  1  0  0  0  0
 19 22  1  0  0  0  0
 19 21  1  0  0  0  0
 20 19  1  0  0  0  0
 23 17  1  0  0  0  0
 23 32  2  0  0  0  0
 24 18  1  0  0  0  0
 24 23  1  0  0  0  0
 25 26  1  0  0  0  0
 25 30  2  0  0  0  0
 26 28  1  0  0  0  0
 26 29  1  0  0  0  0
 27 26  1  0  0  0  0
 30 31  1  0  0  0  0
 32 30  1  0  0  0  0
 32 13  1  0  0  0  0
M  CHG  2  10  -1  13  -1
M  END
