1,2,3
 OpenBabel05122313063D

 38 39  0  0  0  0  0  0  0  0999 V2000
    0.1873   -0.7770   -0.1379 N   0  0  0  0  0  2  0  0  0  0  0  0
   -1.2775    1.5128    0.0975 O   0  5  0  0  0  0  0  0  0  0  0  0
    2.2946    0.5861   -0.0757 O   0  5  0  0  0  0  0  0  0  0  0  0
   -2.3080    0.7158    0.0969 C   0  0  0  0  0  0  0  0  0  0  0  0
   -3.5822    1.3255    0.2344 C   0  0  0  0  0  0  0  0  0  0  0  0
   -3.6221    2.4187    0.3302 H   0  0  0  0  0  0  0  0  0  0  0  0
   -4.7693    0.5910    0.2538 C   0  0  0  0  0  0  0  0  0  0  0  0
   -4.7059   -0.8518    0.1340 C   0  0  0  0  0  0  0  0  0  0  0  0
   -3.4427   -1.4518   -0.0082 C   0  0  0  0  0  3  0  0  0  0  0  0
   -3.4107   -2.5451   -0.0903 H   0  0  0  0  0  0  0  0  0  0  0  0
   -2.2273   -0.7381   -0.0383 C   0  0  0  0  0  0  0  0  0  0  0  0
   -0.9646   -1.4368   -0.1855 C   0  0  0  0  0  0  0  0  0  0  0  0
    2.4186   -0.7061   -0.1619 C   0  0  0  0  0  0  0  0  0  0  0  0
    3.7438   -1.3343   -0.1626 C   0  0  0  0  0  0  0  0  0  0  0  0
    3.8702   -2.7622   -0.1086 C   0  0  0  0  0  0  0  0  0  0  0  0
    5.1671   -3.3258   -0.0785 C   0  0  0  0  0  0  0  0  0  0  0  0
    5.2482   -4.4216   -0.0360 H   0  0  0  0  0  0  0  0  0  0  0  0
    6.3000   -2.5090   -0.1020 C   0  0  0  0  0  0  0  0  0  0  0  0
    7.2985   -2.9728   -0.0800 H   0  0  0  0  0  0  0  0  0  0  0  0
    6.1787   -1.1045   -0.1513 C   0  0  0  0  0  0  0  0  0  0  0  0
    7.0759   -0.4688   -0.1671 H   0  0  0  0  0  0  0  0  0  0  0  0
    4.9067   -0.5309   -0.1778 C   0  0  0  0  0  0  0  0  0  0  0  0
    4.7701    0.5600   -0.2092 H   0  0  0  0  0  0  0  0  0  0  0  0
   -5.9475   -1.6192    0.1645 C   0  0  0  0  0  0  0  0  0  0  0  0
   -5.9219   -3.1305    0.0459 C   0  0  0  0  0  0  0  0  0  0  0  0
   -6.9606   -3.5036    0.0862 H   0  0  0  0  0  0  0  0  0  0  0  0
   -5.3375   -3.5883    0.8697 H   0  0  0  0  0  0  0  0  0  0  0  0
   -5.4550   -3.4519   -0.9071 H   0  0  0  0  0  0  0  0  0  0  0  0
   -0.8844   -2.9288   -0.3709 C   0  0  0  0  0  0  0  0  0  0  0  0
   -0.4567   -3.4099    0.5335 H   0  0  0  0  0  0  0  0  0  0  0  0
   -0.1909   -3.1627   -1.2020 H   0  0  0  0  0  0  0  0  0  0  0  0
   -1.8605   -3.3910   -0.5870 H   0  0  0  0  0  0  0  0  0  0  0  0
    1.3476   -1.5006   -0.2197 N   0  0  0  0  0  0  0  0  0  0  0  0
   -5.9403    1.2105    0.3853 O   0  0  0  0  0  0  0  0  0  0  0  0
   -6.6325    0.4563    0.3749 H   0  0  0  0  0  0  0  0  0  0  0  0
   -7.0569   -1.0457    0.2888 O   0  0  0  0  0  0  0  0  0  0  0  0
    2.8074   -3.5764   -0.0758 O   0  0  0  0  0  0  0  0  0  0  0  0
    1.9876   -2.9612   -0.1301 H   0  0  0  0  0  0  0  0  0  0  0  0
  4  2  1  0  0  0  0
  4  5  2  0  0  0  0
  5  7  1  0  0  0  0
  5  6  1  0  0  0  0
  7 34  1  0  0  0  0
  8 24  1  0  0  0  0
  8  7  2  0  0  0  0
  9  8  1  0  0  0  0
 10  9  1  0  0  0  0
 11  9  1  0  0  0  0
 11  4  1  0  0  0  0
 12  1  1  0  0  0  0
 12 11  2  0  0  0  0
 13  3  1  0  0  0  0
 14 13  1  0  0  0  0
 14 15  1  0  0  0  0
 15 16  2  0  0  0  0
 15 37  1  0  0  0  0
 16 17  1  0  0  0  0
 18 19  1  0  0  0  0
 18 16  1  0  0  0  0
 20 18  2  0  0  0  0
 21 20  1  0  0  0  0
 22 14  2  0  0  0  0
 22 20  1  0  0  0  0
 23 22  1  0  0  0  0
 24 36  2  0  0  0  0
 25 26  1  0  0  0  0
 25 24  1  0  0  0  0
 25 27  1  0  0  0  0
 28 25  1  0  0  0  0
 29 12  1  0  0  0  0
 29 30  1  0  0  0  0
 31 29  1  0  0  0  0
 32 29  1  0  0  0  0
 33 13  2  0  0  0  0
 33  1  1  0  0  0  0
 35 34  1  0  0  0  0
 38 37  1  0  0  0  0
M  CHG  2   2  -1   3  -1
M  END
