1,3,5
 OpenBabel05122313063D

 20 20  0  0  1  0  0  0  0  0999 V2000
    0.5137   -1.5027   -1.7163 O   0  5  0  0  0  0  0  0  0  0  0  0
    2.1325   -1.2652   -3.2954 O   0  0  0  0  0  0  0  0  0  0  0  0
    0.4492   -0.2186    2.2375 O   0  5  0  0  0  0  0  0  0  0  0  0
    2.0681    0.8069    3.4532 O   0  0  0  0  0  0  0  0  0  0  0  0
    1.9563   -0.2959    0.0977 N   0  0  0  0  0  2  0  0  0  0  0  0
    4.4980    0.6020   -0.1539 N   0  0  0  0  0  0  0  0  0  0  0  0
    1.6799   -1.1215   -2.1569 C   0  0  0  0  0  0  0  0  0  0  0  0
    2.5533   -0.4378   -1.0896 C   0  0  2  0  0  3  0  0  0  0  0  0
    3.8862    0.0379   -1.2176 C   0  0  0  0  0  0  0  0  0  0  0  0
    3.8683    0.7203    1.0349 C   0  0  0  0  0  0  0  0  0  0  0  0
    2.5332    0.2526    1.1711 C   0  0  0  0  0  0  0  0  0  0  0  0
    1.6238    0.3002    2.4176 C   0  0  0  0  0  0  0  0  0  0  0  0
    4.6630   -0.0560   -2.4963 C   0  0  0  0  0  0  0  0  0  0  0  0
    5.6555    0.4095   -2.3558 H   0  0  0  0  0  0  0  0  0  0  0  0
    4.1106    0.4244   -3.3273 H   0  0  0  0  0  0  0  0  0  0  0  0
    4.7713   -1.1135   -2.8098 H   0  0  0  0  0  0  0  0  0  0  0  0
    4.6265    1.3487    2.1646 C   0  0  0  0  0  0  0  0  0  0  0  0
    5.6138    1.6867    1.8006 H   0  0  0  0  0  0  0  0  0  0  0  0
    4.7488    0.6268    2.9970 H   0  0  0  0  0  0  0  0  0  0  0  0
    4.0501    2.1840    2.6071 H   0  0  0  0  0  0  0  0  0  0  0  0
  2  7  2  0  0  0  0
  3 12  1  0  0  0  0
  5 11  1  0  0  0  0
  6 10  1  0  0  0  0
  7  1  1  0  0  0  0
  8  7  1  1  0  0  0
  8  5  1  0  0  0  0
  9  8  1  0  0  0  0
  9  6  2  0  0  0  0
 10 11  2  0  0  0  0
 10 17  1  0  0  0  0
 11 12  1  0  0  0  0
 12  4  2  0  0  0  0
 13 14  1  0  0  0  0
 13  9  1  0  0  0  0
 15 13  1  0  0  0  0
 16 13  1  0  0  0  0
 17 20  1  0  0  0  0
 17 19  1  0  0  0  0
 18 17  1  0  0  0  0
M  CHG  2   1  -1   3  -1
M  END
