1,2,3
 OpenBabel05122313063D

 27 26  0  0  1  0  0  0  0  0999 V2000
    0.3155   -1.3770    1.2953 O   0  5  0  0  0  0  0  0  0  0  0  0
    0.3814    1.2895   -1.3419 O   0  0  0  0  0  1  0  0  0  0  0  0
    2.1885    0.0085   -0.1159 N   0  0  0  0  0  2  0  0  0  0  0  0
    0.8864   -3.3602    2.4577 C   0  0  0  0  0  0  0  0  0  0  0  0
    0.0696   -3.9367    1.9762 H   0  0  0  0  0  0  0  0  0  0  0  0
    0.4797   -2.9753    3.4157 H   0  0  0  0  0  0  0  0  0  0  0  0
    1.7366   -4.0348    2.6678 H   0  0  0  0  0  0  0  0  0  0  0  0
    1.2701   -2.2007    1.5711 C   0  0  0  0  0  0  0  0  0  0  0  0
    2.5774   -2.0352    1.1131 C   0  0  0  0  0  0  0  0  0  0  0  0
    3.3304   -2.7726    1.4197 H   0  0  0  0  0  0  0  0  0  0  0  0
    3.0198   -0.9182    0.3384 C   0  0  2  0  0  3  0  0  0  0  0  0
    4.5092   -0.8359    0.0624 C   0  0  0  0  0  0  0  0  0  0  0  0
    4.9383    0.1100    0.4508 H   0  0  0  0  0  0  0  0  0  0  0  0
    4.7174   -0.8621   -1.0271 H   0  0  0  0  0  0  0  0  0  0  0  0
    5.0462   -1.6777    0.5349 H   0  0  0  0  0  0  0  0  0  0  0  0
    2.6859    1.1761   -0.8537 C   0  0  2  0  0  0  0  0  0  0  0  0
    3.6740    0.9860   -1.3289 H   0  0  0  0  0  0  0  0  0  0  0  0
    2.8192    2.3763    0.1086 C   0  0  0  0  0  0  0  0  0  0  0  0
    1.8118    2.5948    0.5216 H   0  0  0  0  0  0  0  0  0  0  0  0
    3.4358    2.0486    0.9733 H   0  0  0  0  0  0  0  0  0  0  0  0
    3.4370    3.6216   -0.5251 C   0  0  0  0  0  0  0  0  0  0  0  0
    3.5494    4.4332    0.2214 H   0  0  0  0  0  0  0  0  0  0  0  0
    2.8122    4.0219   -1.3495 H   0  0  0  0  0  0  0  0  0  0  0  0
    4.4442    3.4121   -0.9444 H   0  0  0  0  0  0  0  0  0  0  0  0
    1.6305    1.4025   -1.9505 C   0  0  0  0  0  0  0  0  0  0  0  0
    1.7508    2.4024   -2.4287 H   0  0  0  0  0  0  0  0  0  0  0  0
    1.7578    0.6325   -2.7507 H   0  0  0  0  0  0  0  0  0  0  0  0
  1  8  1  0  0  0  0
  4  7  1  0  0  0  0
  4  6  1  0  0  0  0
  5  4  1  0  0  0  0
  8  4  1  0  0  0  0
  9 10  1  0  0  0  0
  9  8  2  0  0  0  0
 11  3  1  1  0  0  0
 11  9  1  0  0  0  0
 12 11  1  0  0  0  0
 12 13  1  0  0  0  0
 12 15  1  0  0  0  0
 14 12  1  0  0  0  0
 16 17  1  6  0  0  0
 16  3  1  0  0  0  0
 16 18  1  0  0  0  0
 18 19  1  0  0  0  0
 18 20  1  0  0  0  0
 21 18  1  0  0  0  0
 21 22  1  0  0  0  0
 23 21  1  0  0  0  0
 24 21  1  0  0  0  0
 25  2  1  0  0  0  0
 25 16  1  0  0  0  0
 26 25  1  0  0  0  0
 27 25  1  0  0  0  0
M  CHG  1   1  -1
M  END
