1,2,3
 OpenBabel05122313063D

 38 40  0  0  1  0  0  0  0  0999 V2000
   -1.1200   -0.7465   -0.2467 O   0  5  0  0  0  0  0  0  0  0  0  0
    2.6204   -1.4079   -0.0578 O   0  5  0  0  0  0  0  0  0  0  0  0
    1.2525    0.7342   -0.0607 N   0  0  0  0  0  2  0  0  0  0  0  0
   -1.5908    0.4330   -0.0992 C   0  0  0  0  0  0  0  0  0  0  0  0
    3.2174   -0.2543   -0.1133 C   0  0  0  0  0  0  0  0  0  0  0  0
    2.6059    0.9171   -0.1434 N   0  0  0  0  0  0  0  0  0  0  0  0
    0.5019    1.8295   -0.0268 C   0  0  2  0  0  3  0  0  0  0  0  0
   -2.9593    0.7185   -0.0609 N   0  0  0  0  0  0  0  0  0  0  0  0
   -0.9287    1.6893    0.0129 C   0  0  0  0  0  0  0  0  0  0  0  0
    4.6821   -0.2874   -0.1662 C   0  0  0  0  0  0  0  0  0  0  0  0
    1.1331    3.1997   -0.0351 C   0  0  0  0  0  0  0  0  0  0  0  0
   -3.1914    2.0691    0.0648 N   0  0  0  0  0  0  0  0  0  0  0  0
   -4.0516   -0.1701   -0.1340 C   0  0  0  0  0  0  0  0  0  0  0  0
   -1.9955    2.6514    0.1076 C   0  0  0  0  0  0  0  0  0  0  0  0
    5.3951    0.8801   -0.2492 O   0  0  0  0  0  0  0  0  0  0  0  0
    5.5501   -1.3658   -0.1448 C   0  0  0  0  0  0  0  0  0  0  0  0
    0.8856    3.7505    0.8951 H   0  0  0  0  0  0  0  0  0  0  0  0
    2.2284    3.0845   -0.1151 H   0  0  0  0  0  0  0  0  0  0  0  0
    0.7538    3.8044   -0.8833 H   0  0  0  0  0  0  0  0  0  0  0  0
   -5.3616    0.3619   -0.1062 C   0  0  0  0  0  0  0  0  0  0  0  0
   -3.8688   -1.5698   -0.2311 C   0  0  0  0  0  0  0  0  0  0  0  0
   -1.9365    4.1418    0.2537 C   0  0  0  0  0  0  0  0  0  0  0  0
    6.7138    0.5475   -0.2803 C   0  0  0  0  0  0  0  0  0  0  0  0
    5.2383   -2.4127   -0.0810 H   0  0  0  0  0  0  0  0  0  0  0  0
    6.8718   -0.8206   -0.2186 C   0  0  0  0  0  0  0  0  0  0  0  0
   -5.4709    1.4510   -0.0276 H   0  0  0  0  0  0  0  0  0  0  0  0
   -6.4674   -0.4931   -0.1752 C   0  0  0  0  0  0  0  0  0  0  0  0
   -4.9915   -2.4063   -0.2985 C   0  0  0  0  0  0  0  0  0  0  0  0
   -2.8518   -1.9807   -0.2505 H   0  0  0  0  0  0  0  0  0  0  0  0
   -2.9701    4.5320    0.3224 H   0  0  0  0  0  0  0  0  0  0  0  0
   -1.4335    4.6282   -0.6075 H   0  0  0  0  0  0  0  0  0  0  0  0
   -1.3825    4.4477    1.1652 H   0  0  0  0  0  0  0  0  0  0  0  0
    7.4149    1.3861   -0.3466 H   0  0  0  0  0  0  0  0  0  0  0  0
    7.8217   -1.3675   -0.2251 H   0  0  0  0  0  0  0  0  0  0  0  0
   -7.4813   -0.0623   -0.1519 H   0  0  0  0  0  0  0  0  0  0  0  0
   -6.2948   -1.8841   -0.2726 C   0  0  0  0  0  0  0  0  0  0  0  0
   -4.8344   -3.4939   -0.3717 H   0  0  0  0  0  0  0  0  0  0  0  0
   -7.1671   -2.5537   -0.3263 H   0  0  0  0  0  0  0  0  0  0  0  0
  1  4  1  0  0  0  0
  4  8  1  0  0  0  0
  4  9  2  0  0  0  0
  5  2  1  0  0  0  0
  6  5  2  0  0  0  0
  6  3  1  0  0  0  0
  7  3  1  6  0  0  0
  7  9  1  0  0  0  0
  8 12  1  0  0  0  0
  9 14  1  0  0  0  0
 10 16  2  0  0  0  0
 10  5  1  0  0  0  0
 11  7  1  0  0  0  0
 11 17  1  0  0  0  0
 12 14  2  0  0  0  0
 13 20  1  0  0  0  0
 13  8  1  0  0  0  0
 14 22  1  0  0  0  0
 15 10  1  0  0  0  0
 16 24  1  0  0  0  0
 18 11  1  0  0  0  0
 19 11  1  0  0  0  0
 20 26  1  0  0  0  0
 21 13  2  0  0  0  0
 22 30  1  0  0  0  0
 22 32  1  0  0  0  0
 23 15  1  0  0  0  0
 23 25  2  0  0  0  0
 25 16  1  0  0  0  0
 27 35  1  0  0  0  0
 27 20  2  0  0  0  0
 28 36  2  0  0  0  0
 28 21  1  0  0  0  0
 29 21  1  0  0  0  0
 31 22  1  0  0  0  0
 33 23  1  0  0  0  0
 34 25  1  0  0  0  0
 36 27  1  0  0  0  0
 37 28  1  0  0  0  0
 38 36  1  0  0  0  0
M  CHG  2   1  -1   2  -1
M  END
