1,2,5
 OpenBabel05122313063D

 33 34  0  0  0  0  0  0  0  0999 V2000
    2.2856    1.1958   -0.0127 O   0  5  0  0  0  0  0  0  0  0  0  0
   -1.3800    0.9340    0.0052 O   0  5  0  0  0  0  0  0  0  0  0  0
   -8.1491   -0.4828    0.0457 O   0  0  0  0  0  0  0  0  0  0  0  0
   -7.7280   -2.6281    0.1028 O   0  0  0  0  0  0  0  0  0  0  0  0
    0.4023   -0.8133    0.0054 N   0  0  0  0  0  2  0  0  0  0  0  0
   -0.8706   -1.3141    0.0269 N   0  0  0  0  0  0  0  0  0  0  0  0
    3.1420    0.2081   -0.0382 C   0  0  0  0  0  0  0  0  0  0  0  0
    4.5260    0.5633   -0.0720 C   0  0  0  0  0  0  0  0  0  0  0  0
    4.7594    1.6378   -0.0751 H   0  0  0  0  0  0  0  0  0  0  0  0
    5.5349   -0.3888   -0.0986 C   0  0  0  0  0  0  0  0  0  0  0  0
    6.5932   -0.0928   -0.1245 H   0  0  0  0  0  0  0  0  0  0  0  0
    5.1873   -1.7598   -0.0930 C   0  0  0  0  0  0  0  0  0  0  0  0
    3.8545   -2.1492   -0.0596 C   0  0  0  0  0  3  0  0  0  0  0  0
    3.6281   -3.2222   -0.0575 H   0  0  0  0  0  0  0  0  0  0  0  0
    2.7944   -1.1948   -0.0321 C   0  0  0  0  0  0  0  0  0  0  0  0
    1.4267   -1.6668    0.0054 C   0  0  0  0  0  0  0  0  0  0  0  0
    1.1473   -3.1453    0.0407 C   0  0  0  0  0  0  0  0  0  0  0  0
    0.0602   -3.3156    0.0940 H   0  0  0  0  0  0  0  0  0  0  0  0
    1.6370   -3.6153    0.9174 H   0  0  0  0  0  0  0  0  0  0  0  0
    1.5482   -3.6432   -0.8658 H   0  0  0  0  0  0  0  0  0  0  0  0
   -1.7459   -0.3216    0.0230 C   0  0  0  0  0  0  0  0  0  0  0  0
   -3.1901   -0.6274    0.0369 C   0  0  0  0  0  0  0  0  0  0  0  0
   -4.1238    0.4343    0.0111 C   0  0  0  0  0  0  0  0  0  0  0  0
   -3.7428    1.4646   -0.0176 H   0  0  0  0  0  0  0  0  0  0  0  0
   -5.4958    0.1718    0.0214 C   0  0  0  0  0  0  0  0  0  0  0  0
   -6.2469    0.9724    0.0016 H   0  0  0  0  0  0  0  0  0  0  0  0
   -5.9286   -1.1616    0.0583 C   0  0  0  0  0  0  0  0  0  0  0  0
   -5.0242   -2.2351    0.0844 C   0  0  0  0  0  0  0  0  0  0  0  0
   -5.4189   -3.2593    0.1127 H   0  0  0  0  0  0  0  0  0  0  0  0
   -3.6552   -1.9636    0.0730 C   0  0  0  0  0  0  0  0  0  0  0  0
   -2.9176   -2.7774    0.0917 H   0  0  0  0  0  0  0  0  0  0  0  0
   -7.3808   -1.4460    0.0698 N   0  0  0  0  0  0  0  0  0  0  0  0
    6.4521   -2.9694   -0.1287 Cl  0  0  0  0  0  0  0  0  0  0  0  0
  2 21  1  0  0  0  0
  3 32  2  0  0  0  0
  5 16  1  0  0  0  0
  5  6  1  0  0  0  0
  7 15  1  0  0  0  0
  7  1  1  0  0  0  0
  8  7  2  0  0  0  0
  9  8  1  0  0  0  0
 10 12  2  0  0  0  0
 10  8  1  0  0  0  0
 11 10  1  0  0  0  0
 12 13  1  0  0  0  0
 13 14  1  0  0  0  0
 13 15  1  0  0  0  0
 15 16  2  0  0  0  0
 16 17  1  0  0  0  0
 17 18  1  0  0  0  0
 17 19  1  0  0  0  0
 20 17  1  0  0  0  0
 21  6  2  0  0  0  0
 21 22  1  0  0  0  0
 22 30  1  0  0  0  0
 23 25  1  0  0  0  0
 23 22  2  0  0  0  0
 24 23  1  0  0  0  0
 25 27  2  0  0  0  0
 26 25  1  0  0  0  0
 27 32  1  0  0  0  0
 27 28  1  0  0  0  0
 28 29  1  0  0  0  0
 30 28  2  0  0  0  0
 30 31  1  0  0  0  0
 32  4  2  0  0  0  0
 33 12  1  0  0  0  0
M  CHG  2   1  -1   2  -1
M  END
