1,3,4
 OpenBabel05122313063D

 31 32  0  0  0  0  0  0  0  0999 V2000
    0.9357    0.8732   -0.0482 N   0  0  0  0  0  2  0  0  0  0  0  0
    2.1216    1.5262    0.0556 N   0  0  0  0  0  0  0  0  0  0  0  0
   -0.8085   -1.2381    0.0291 O   0  5  0  0  0  0  0  0  0  0  0  0
    2.9186   -0.6140   -0.2391 O   0  5  0  0  0  0  0  0  0  0  0  0
   -3.4871   -2.6095    0.0353 Br  0  0  0  0  0  0  0  0  0  0  0  0
   -5.3294    2.7918   -0.1266 Br  0  0  0  0  0  0  0  0  0  0  0  0
   -1.5006    1.0766   -0.0473 C   0  0  0  0  0  0  0  0  0  0  0  0
   -1.7705   -0.3289   -0.0300 C   0  0  0  0  0  0  0  0  0  0  0  0
   -3.1260   -0.7523   -0.0278 C   0  0  0  0  0  0  0  0  0  0  0  0
   -4.1816    0.1662   -0.0586 C   0  0  0  0  0  0  0  0  0  0  0  0
   -5.2196   -0.1920   -0.0602 H   0  0  0  0  0  0  0  0  0  0  0  0
   -3.8955    1.5446   -0.0831 C   0  0  0  0  0  0  0  0  0  0  0  0
   -2.5772    1.9995   -0.0708 C   0  0  0  0  0  0  0  0  0  0  0  0
   -2.3619    3.0773   -0.0824 H   0  0  0  0  0  0  0  0  0  0  0  0
   -0.1557    1.5997    0.0020 C   0  0  0  0  0  3  0  0  0  0  0  0
   -0.0216    2.6940    0.0897 H   0  0  0  0  0  0  0  0  0  0  0  0
    3.1313    0.6786   -0.0745 C   0  0  0  0  0  0  0  0  0  0  0  0
    4.5196    1.1770   -0.0251 C   0  0  0  0  0  0  0  0  0  0  0  0
    5.6580    0.3238   -0.1525 C   0  0  0  0  0  0  0  0  0  0  0  0
    6.9307    0.9281   -0.0836 C   0  0  0  0  0  0  0  0  0  0  0  0
    7.8183    0.2839   -0.1809 H   0  0  0  0  0  0  0  0  0  0  0  0
    7.0982    2.3061    0.1014 C   0  0  0  0  0  0  0  0  0  0  0  0
    8.1119    2.7326    0.1483 H   0  0  0  0  0  0  0  0  0  0  0  0
    5.9721    3.1359    0.2243 C   0  0  0  0  0  0  0  0  0  0  0  0
    6.0882    4.2204    0.3684 H   0  0  0  0  0  0  0  0  0  0  0  0
    4.6985    2.5708    0.1597 C   0  0  0  0  0  0  0  0  0  0  0  0
    3.7979    3.1932    0.2511 H   0  0  0  0  0  0  0  0  0  0  0  0
    5.5829   -1.1678   -0.3580 C   0  0  0  0  0  0  0  0  0  0  0  0
    6.6013   -1.5966   -0.4217 H   0  0  0  0  0  0  0  0  0  0  0  0
    5.0315   -1.4274   -1.2830 H   0  0  0  0  0  0  0  0  0  0  0  0
    5.0368   -1.6703    0.4641 H   0  0  0  0  0  0  0  0  0  0  0  0
  1 15  1  0  0  0  0
  1  2  1  0  0  0  0
  4 17  1  0  0  0  0
  6 12  1  0  0  0  0
  7  8  1  0  0  0  0
  7 15  1  0  0  0  0
  8  9  2  0  0  0  0
  8  3  1  0  0  0  0
  9  5  1  0  0  0  0
 10  9  1  0  0  0  0
 11 10  1  0  0  0  0
 12 13  1  0  0  0  0
 12 10  2  0  0  0  0
 13  7  2  0  0  0  0
 14 13  1  0  0  0  0
 15 16  1  0  0  0  0
 17 18  1  0  0  0  0
 17  2  2  0  0  0  0
 18 26  1  0  0  0  0
 19 20  1  0  0  0  0
 19 18  2  0  0  0  0
 20 22  2  0  0  0  0
 21 20  1  0  0  0  0
 22 23  1  0  0  0  0
 22 24  1  0  0  0  0
 24 25  1  0  0  0  0
 26 24  2  0  0  0  0
 26 27  1  0  0  0  0
 28 19  1  0  0  0  0
 28 31  1  0  0  0  0
 29 28  1  0  0  0  0
 30 28  1  0  0  0  0
M  CHG  2   3  -1   4  -1
M  END
