2,6,7
 OpenBabel05122313063D

 27 28  0  0  0  0  0  0  0  0999 V2000
    1.2714   -1.6620    0.0002 N   0  0  0  0  0  0  0  0  0  0  0  0
    2.2444    0.4315    0.0003 O   0  5  0  0  0  0  0  0  0  0  0  0
    5.5728   -3.0802   -0.0003 C   0  0  0  0  0  0  0  0  0  0  0  0
    6.1926   -3.9856   -0.0005 H   0  0  0  0  0  0  0  0  0  0  0  0
    3.8499   -3.2194   -0.0005 S   0  0  0  0  0  0  0  0  0  0  0  0
   -1.3069    1.4378    0.0010 O   0  5  0  0  0  0  0  0  0  0  0  0
    0.1493   -0.8812    0.0003 N   0  0  0  0  0  2  0  0  0  0  0  0
    5.9915   -1.7593    0.0002 C   0  0  0  0  0  0  0  0  0  0  0  0
    7.0488   -1.4612    0.0004 H   0  0  0  0  0  0  0  0  0  0  0  0
   -5.8225   -2.9369   -0.0010 O   0  0  0  0  0  0  0  0  0  0  0  0
   -5.9409   -1.7078   -0.0005 N   0  0  0  0  0  0  0  0  0  0  0  0
    4.9003   -0.8458    0.0004 C   0  0  0  0  0  0  0  0  0  0  0  0
    4.9926    0.2478    0.0009 H   0  0  0  0  0  0  0  0  0  0  0  0
   -7.0192   -1.1056   -0.0003 O   0  0  0  0  0  0  0  0  0  0  0  0
    3.6649   -1.4847    0.0001 C   0  0  0  0  0  0  0  0  0  0  0  0
    2.3382   -0.8788    0.0002 C   0  0  0  0  0  0  0  0  0  0  0  0
   -1.0266   -1.4774   -0.0000 C   0  0  0  0  0  0  0  0  0  0  0  0
   -1.0107   -2.5810   -0.0004 H   0  0  0  0  0  0  0  0  0  0  0  0
   -2.2812   -0.7871    0.0001 C   0  0  0  0  0  0  0  0  0  0  0  0
   -3.4783   -1.5406   -0.0003 C   0  0  0  0  0  3  0  0  0  0  0  0
   -3.4535   -2.6392   -0.0007 H   0  0  0  0  0  0  0  0  0  0  0  0
   -4.7143   -0.9013   -0.0001 C   0  0  0  0  0  0  0  0  0  0  0  0
   -4.8097    0.5091    0.0005 C   0  0  0  0  0  0  0  0  0  0  0  0
   -5.8068    0.9688    0.0006 H   0  0  0  0  0  0  0  0  0  0  0  0
   -3.6490    1.2669    0.0008 C   0  0  0  0  0  0  0  0  0  0  0  0
   -3.6913    2.3656    0.0013 H   0  0  0  0  0  0  0  0  0  0  0  0
   -2.3545    0.6590    0.0006 C   0  0  0  0  0  0  0  0  0  0  0  0
  1 16  2  0  0  0  0
  1  7  1  0  0  0  0
  3  8  2  0  0  0  0
  4  3  1  0  0  0  0
  5  3  1  0  0  0  0
  5 15  1  0  0  0  0
  8 12  1  0  0  0  0
  8  9  1  0  0  0  0
 10 11  2  0  0  0  0
 11 14  2  0  0  0  0
 11 22  1  0  0  0  0
 12 13  1  0  0  0  0
 15 16  1  0  0  0  0
 15 12  2  0  0  0  0
 16  2  1  0  0  0  0
 17 19  2  0  0  0  0
 17  7  1  0  0  0  0
 18 17  1  0  0  0  0
 19 27  1  0  0  0  0
 20 22  1  0  0  0  0
 20 19  1  0  0  0  0
 21 20  1  0  0  0  0
 22 23  2  0  0  0  0
 23 24  1  0  0  0  0
 23 25  1  0  0  0  0
 25 26  1  0  0  0  0
 27 25  2  0  0  0  0
 27  6  1  0  0  0  0
M  CHG  2   2  -1   6  -1
M  END
