1,4,5
 OpenBabel05122313063D

 30 31  0  0  0  0  0  0  0  0999 V2000
    0.2931    0.7229   -0.1249 N   0  0  0  0  0  2  0  0  0  0  0  0
    1.5427    1.2613   -0.0918 N   0  0  0  0  0  0  0  0  0  0  0  0
    3.5527    3.0462    0.0025 N   0  0  0  0  0  0  0  0  0  0  0  0
   -1.6443   -1.2140    0.0089 O   0  5  0  0  0  0  0  0  0  0  0  0
    2.1301   -0.9647   -0.2054 O   0  5  0  0  0  0  0  0  0  0  0  0
   -2.1118    1.1566   -0.0524 C   0  0  0  0  0  0  0  0  0  0  0  0
   -2.5108   -0.2162   -0.0240 C   0  0  0  0  0  0  0  0  0  0  0  0
   -3.9017   -0.5119   -0.0007 C   0  0  0  0  0  0  0  0  0  0  0  0
   -4.8643    0.5032   -0.0042 C   0  0  0  0  0  0  0  0  0  0  0  0
   -5.9309    0.2444    0.0136 H   0  0  0  0  0  0  0  0  0  0  0  0
   -4.4516    1.8495   -0.0287 C   0  0  0  0  0  0  0  0  0  0  0  0
   -3.0965    2.1774   -0.0504 C   0  0  0  0  0  0  0  0  0  0  0  0
   -2.7877    3.2320   -0.0696 H   0  0  0  0  0  0  0  0  0  0  0  0
   -0.7239    1.5485   -0.0625 C   0  0  0  0  0  3  0  0  0  0  0  0
   -0.4926    2.6294   -0.0167 H   0  0  0  0  0  0  0  0  0  0  0  0
    2.4772    0.3124   -0.1613 C   0  0  0  0  0  0  0  0  0  0  0  0
    3.8993    0.6300   -0.1554 C   0  0  0  0  0  0  0  0  0  0  0  0
    4.8255   -0.4436   -0.2299 C   0  0  0  0  0  0  0  0  0  0  0  0
    4.4143   -1.4608   -0.2918 H   0  0  0  0  0  0  0  0  0  0  0  0
    6.1992   -0.2268   -0.2333 C   0  0  0  0  0  0  0  0  0  0  0  0
    6.8973   -1.0735   -0.2946 H   0  0  0  0  0  0  0  0  0  0  0  0
    6.6819    1.0995   -0.1628 C   0  0  0  0  0  0  0  0  0  0  0  0
    7.7661    1.2909   -0.1671 H   0  0  0  0  0  0  0  0  0  0  0  0
    5.8041    2.1758   -0.0892 C   0  0  0  0  0  0  0  0  0  0  0  0
    6.1923    3.2049   -0.0351 H   0  0  0  0  0  0  0  0  0  0  0  0
    4.3929    1.9837   -0.0810 C   0  0  0  0  0  0  0  0  0  0  0  0
   -4.3897   -2.1749    0.0364 Cl  0  0  0  0  0  0  0  0  0  0  0  0
   -5.6546    3.1115   -0.0324 Cl  0  0  0  0  0  0  0  0  0  0  0  0
    2.5399    2.8551   -0.0272 H   0  0  0  0  0  0  0  0  0  0  0  0
    3.9284    3.9912    0.0023 H   0  0  0  0  0  0  0  0  0  0  0  0
  1  2  1  0  0  0  0
  1 14  1  0  0  0  0
  5 16  1  0  0  0  0
  6 12  2  0  0  0  0
  6  7  1  0  0  0  0
  7  8  2  0  0  0  0
  7  4  1  0  0  0  0
  8 27  1  0  0  0  0
  9  8  1  0  0  0  0
  9 10  1  0  0  0  0
 11  9  2  0  0  0  0
 12 11  1  0  0  0  0
 13 12  1  0  0  0  0
 14  6  1  0  0  0  0
 14 15  1  0  0  0  0
 16 17  1  0  0  0  0
 16  2  2  0  0  0  0
 17 26  1  0  0  0  0
 18 17  2  0  0  0  0
 19 18  1  0  0  0  0
 20 18  1  0  0  0  0
 20 22  2  0  0  0  0
 21 20  1  0  0  0  0
 22 24  1  0  0  0  0
 23 22  1  0  0  0  0
 24 26  2  0  0  0  0
 24 25  1  0  0  0  0
 26  3  1  0  0  0  0
 28 11  1  0  0  0  0
 29  3  1  0  0  0  0
 30  3  1  0  0  0  0
M  CHG  2   4  -1   5  -1
M  END
