1,3,4
 OpenBabel05122313063D

 33 34  0  0  0  0  0  0  0  0999 V2000
    0.6657   -0.0879    1.7700 N   0  0  0  0  0  2  0  0  0  0  0  0
    1.6011    0.8767    1.9590 N   0  0  0  0  0  0  0  0  0  0  0  0
    1.2570    1.2021   -0.3068 O   0  5  0  0  0  0  0  0  0  0  0  0
   -1.2066   -1.6091    0.3091 O   0  5  0  0  0  0  0  0  0  0  0  0
    5.7108    5.6477    0.6498 O   0  0  0  0  0  0  0  0  0  0  0  0
    6.0854    5.7913    1.5387 H   0  0  0  0  0  0  0  0  0  0  0  0
   -2.8753   -3.5876    0.2583 O   0  0  0  0  0  0  0  0  0  0  0  0
    1.8581    1.5001    0.8150 C   0  0  0  0  0  0  0  0  0  0  0  0
    2.8672    2.5783    0.7974 C   0  0  0  0  0  0  0  0  0  0  0  0
    3.1732    3.2420   -0.4111 C   0  0  0  0  0  0  0  0  0  0  0  0
    2.6463    2.9311   -1.3243 H   0  0  0  0  0  0  0  0  0  0  0  0
    4.1236    4.2645   -0.4489 C   0  0  0  0  0  0  0  0  0  0  0  0
    4.3697    4.7854   -1.3855 H   0  0  0  0  0  0  0  0  0  0  0  0
    4.7921    4.6461    0.7323 C   0  0  0  0  0  0  0  0  0  0  0  0
    4.4937    3.9881    1.9449 C   0  0  0  0  0  0  0  0  0  0  0  0
    5.0173    4.2847    2.8694 H   0  0  0  0  0  0  0  0  0  0  0  0
    3.5421    2.9656    1.9749 C   0  0  0  0  0  0  0  0  0  0  0  0
    3.3024    2.4440    2.9123 H   0  0  0  0  0  0  0  0  0  0  0  0
    0.2961   -0.8641    2.7600 C   0  0  0  0  0  3  0  0  0  0  0  0
    0.7794   -0.6635    3.7331 H   0  0  0  0  0  0  0  0  0  0  0  0
   -0.6570   -1.9336    2.6679 C   0  0  0  0  0  0  0  0  0  0  0  0
   -1.3381   -2.2452    1.4412 C   0  0  0  0  0  0  0  0  0  0  0  0
   -2.2678   -3.3522    1.4582 C   0  0  0  0  0  0  0  0  0  0  0  0
   -2.4954   -4.0837    2.6253 C   0  0  0  0  0  0  0  0  0  0  0  0
   -3.2043   -4.9229    2.6200 H   0  0  0  0  0  0  0  0  0  0  0  0
   -1.8155   -3.7573    3.8252 C   0  0  0  0  0  0  0  0  0  0  0  0
   -2.0054   -4.3462    4.7343 H   0  0  0  0  0  0  0  0  0  0  0  0
   -0.9160   -2.7033    3.8418 C   0  0  0  0  0  0  0  0  0  0  0  0
   -0.3777   -2.4424    4.7660 H   0  0  0  0  0  0  0  0  0  0  0  0
   -3.7760   -4.6673    0.1816 C   0  0  0  0  0  0  0  0  0  0  0  0
   -4.1432   -4.7008   -0.8618 H   0  0  0  0  0  0  0  0  0  0  0  0
   -4.6473   -4.5389    0.8657 H   0  0  0  0  0  0  0  0  0  0  0  0
   -3.2872   -5.6402    0.4218 H   0  0  0  0  0  0  0  0  0  0  0  0
  1  2  1  0  0  0  0
  1 19  1  0  0  0  0
  3  8  1  0  0  0  0
  4 22  1  0  0  0  0
  5 14  1  0  0  0  0
  5  6  1  0  0  0  0
  7 23  1  0  0  0  0
  8  2  2  0  0  0  0
  9  8  1  0  0  0  0
  9 17  1  0  0  0  0
 10  9  2  0  0  0  0
 11 10  1  0  0  0  0
 12 10  1  0  0  0  0
 12 14  2  0  0  0  0
 13 12  1  0  0  0  0
 14 15  1  0  0  0  0
 15 17  2  0  0  0  0
 15 16  1  0  0  0  0
 17 18  1  0  0  0  0
 19 20  1  0  0  0  0
 21 19  1  0  0  0  0
 21 28  1  0  0  0  0
 22 23  1  0  0  0  0
 22 21  2  0  0  0  0
 23 24  2  0  0  0  0
 24 26  1  0  0  0  0
 25 24  1  0  0  0  0
 26 28  2  0  0  0  0
 26 27  1  0  0  0  0
 28 29  1  0  0  0  0
 30  7  1  0  0  0  0
 30 33  1  0  0  0  0
 30 32  1  0  0  0  0
 31 30  1  0  0  0  0
M  CHG  2   3  -1   4  -1
M  END
