2,4,5
 OpenBabel05122313063D

 35 36  0  0  0  0  0  0  0  0999 V2000
    7.5747   -0.5970   -0.0706 Br  0  0  0  0  0  0  0  0  0  0  0  0
   -0.5769   -1.7366    0.0981 N   0  0  0  0  0  2  0  0  0  0  0  0
    0.7622   -1.8732    0.3117 N   0  0  0  0  0  0  0  0  0  0  0  0
   -2.8267   -0.4179   -0.3694 O   0  5  0  0  0  0  0  0  0  0  0  0
    0.7777   -0.0153   -1.0373 O   0  5  0  0  0  0  0  0  0  0  0  0
   -5.4675   -0.2995   -0.3957 O   0  0  0  0  0  0  0  0  0  0  0  0
   -2.8056   -2.6109    0.5930 C   0  0  0  0  0  0  0  0  0  0  0  0
   -3.4849   -1.4658    0.0823 C   0  0  0  0  0  0  0  0  0  0  0  0
   -4.9170   -1.4334    0.1006 C   0  0  0  0  0  0  0  0  0  0  0  0
   -5.6253   -2.5317    0.6106 C   0  0  0  0  0  0  0  0  0  0  0  0
   -6.7233   -2.5189    0.6206 H   0  0  0  0  0  0  0  0  0  0  0  0
   -4.9424   -3.6627    1.1148 C   0  0  0  0  0  0  0  0  0  0  0  0
   -5.5228   -4.5100    1.5077 H   0  0  0  0  0  0  0  0  0  0  0  0
   -3.5537   -3.7036    1.1147 C   0  0  0  0  0  0  0  0  0  0  0  0
   -3.0144   -4.5789    1.5070 H   0  0  0  0  0  0  0  0  0  0  0  0
   -1.3699   -2.6352    0.6406 C   0  0  0  0  0  3  0  0  0  0  0  0
   -0.8700   -3.4590    1.1827 H   0  0  0  0  0  0  0  0  0  0  0  0
    1.4100   -0.9198   -0.3394 C   0  0  0  0  0  0  0  0  0  0  0  0
    2.8831   -0.8574   -0.2741 C   0  0  0  0  0  0  0  0  0  0  0  0
    3.5678    0.1775   -0.9448 C   0  0  0  0  0  0  0  0  0  0  0  0
    2.9839    0.9164   -1.5119 H   0  0  0  0  0  0  0  0  0  0  0  0
    4.9639    0.2600   -0.8888 C   0  0  0  0  0  0  0  0  0  0  0  0
    5.5004    1.0646   -1.4108 H   0  0  0  0  0  0  0  0  0  0  0  0
    5.6775   -0.7018   -0.1546 C   0  0  0  0  0  0  0  0  0  0  0  0
    5.0132   -1.7421    0.5204 C   0  0  0  0  0  0  0  0  0  0  0  0
    5.5897   -2.4861    1.0879 H   0  0  0  0  0  0  0  0  0  0  0  0
    3.6187   -1.8154    0.4573 C   0  0  0  0  0  0  0  0  0  0  0  0
    3.0730   -2.6174    0.9742 H   0  0  0  0  0  0  0  0  0  0  0  0
   -6.8869   -0.1894   -0.4338 C   0  0  0  0  0  0  0  0  0  0  0  0
   -7.3026   -0.2827    0.5975 H   0  0  0  0  0  0  0  0  0  0  0  0
   -7.3152   -1.0235   -1.0381 H   0  0  0  0  0  0  0  0  0  0  0  0
   -7.2329    1.1564   -1.0413 C   0  0  0  0  0  0  0  0  0  0  0  0
   -6.8098    1.9800   -0.4334 H   0  0  0  0  0  0  0  0  0  0  0  0
   -8.3322    1.2838   -1.0909 H   0  0  0  0  0  0  0  0  0  0  0  0
   -6.8218    1.2387   -2.0666 H   0  0  0  0  0  0  0  0  0  0  0  0
  2  3  1  0  0  0  0
  2 16  1  0  0  0  0
  4  8  1  0  0  0  0
  5 18  1  0  0  0  0
  6  9  1  0  0  0  0
  7 16  1  0  0  0  0
  7 14  1  0  0  0  0
  8  9  1  0  0  0  0
  8  7  2  0  0  0  0
  9 10  2  0  0  0  0
 10 11  1  0  0  0  0
 10 12  1  0  0  0  0
 12 13  1  0  0  0  0
 14 12  2  0  0  0  0
 14 15  1  0  0  0  0
 16 17  1  0  0  0  0
 18 19  1  0  0  0  0
 18  3  2  0  0  0  0
 19 27  1  0  0  0  0
 20 22  1  0  0  0  0
 20 19  2  0  0  0  0
 21 20  1  0  0  0  0
 22 24  2  0  0  0  0
 23 22  1  0  0  0  0
 24  1  1  0  0  0  0
 24 25  1  0  0  0  0
 25 26  1  0  0  0  0
 27 25  2  0  0  0  0
 27 28  1  0  0  0  0
 29  6  1  0  0  0  0
 29 30  1  0  0  0  0
 31 29  1  0  0  0  0
 32 29  1  0  0  0  0
 32 33  1  0  0  0  0
 34 32  1  0  0  0  0
 35 32  1  0  0  0  0
M  CHG  2   4  -1   5  -1
M  END
