1,2,7
 OpenBabel05122313063D

 36 38  0  0  0  0  0  0  0  0999 V2000
    0.8825   -0.1646   -1.1620 O   0  5  0  0  0  0  0  0  0  0  0  0
   -2.4235   -1.6765   -0.7870 O   0  5  0  0  0  0  0  0  0  0  0  0
   -4.2893   -2.2192    0.2915 O   0  0  0  0  0  0  0  0  0  0  0  0
    2.5477    1.2999   -0.3061 N   0  0  0  0  0  0  0  0  0  0  0  0
    2.5782    2.5021    0.3927 N   0  0  0  0  0  0  0  0  0  0  0  0
   -0.9195    1.9206    0.0396 N   0  0  0  0  0  2  0  0  0  0  0  0
   -1.6127    0.9095   -0.3777 N   0  0  0  0  0  2  0  0  0  0  0  0
    6.1758   -0.7649   -0.9905 C   0  0  0  0  0  0  0  0  0  0  0  0
    7.1207   -1.3030   -1.1562 H   0  0  0  0  0  0  0  0  0  0  0  0
    6.1520    0.4065   -0.2158 C   0  0  0  0  0  0  0  0  0  0  0  0
    7.0815    0.7932    0.2289 H   0  0  0  0  0  0  0  0  0  0  0  0
    4.9530    1.0958    0.0019 C   0  0  0  0  0  0  0  0  0  0  0  0
    4.9134    2.0129    0.6031 H   0  0  0  0  0  0  0  0  0  0  0  0
    3.7562    0.6082   -0.5641 C   0  0  0  0  0  0  0  0  0  0  0  0
    3.7702   -0.5610   -1.3560 C   0  0  0  0  0  0  0  0  0  0  0  0
    2.8403   -0.9307   -1.8049 H   0  0  0  0  0  0  0  0  0  0  0  0
    4.9820   -1.2378   -1.5568 C   0  0  0  0  0  0  0  0  0  0  0  0
    4.9868   -2.1484   -2.1748 H   0  0  0  0  0  0  0  0  0  0  0  0
   -3.0244    1.1479   -0.3725 C   0  0  0  0  0  0  0  0  0  0  0  0
   -3.5013    2.4777   -0.4363 C   0  0  0  0  0  0  0  0  0  0  0  0
   -2.7697    3.2896   -0.5353 H   0  0  0  0  0  0  0  0  0  0  0  0
   -4.8701    2.7447   -0.3658 C   0  0  0  0  0  0  0  0  0  0  0  0
   -5.2213    3.7856   -0.4315 H   0  0  0  0  0  0  0  0  0  0  0  0
   -5.7918    1.6934   -0.2090 C   0  0  0  0  0  0  0  0  0  0  0  0
   -6.8697    1.9027   -0.1436 H   0  0  0  0  0  0  0  0  0  0  0  0
   -5.3243    0.3787   -0.1410 C   0  0  0  0  0  0  0  0  0  0  0  0
   -6.0059   -0.4735   -0.0044 H   0  0  0  0  0  0  0  0  0  0  0  0
   -3.9508    0.0838   -0.2485 C   0  0  0  0  0  0  0  0  0  0  0  0
   -3.5589   -1.3591   -0.2106 C   0  0  0  0  0  0  0  0  0  0  0  0
    1.3247    2.8795    0.5806 C   0  0  0  0  0  0  0  0  0  0  0  0
    0.9707    4.1407    1.2914 C   0  0  0  0  0  0  0  0  0  0  0  0
    0.3277    3.9328    2.1708 H   0  0  0  0  0  0  0  0  0  0  0  0
    0.3946    4.8178    0.6278 H   0  0  0  0  0  0  0  0  0  0  0  0
    1.8880    4.6594    1.6250 H   0  0  0  0  0  0  0  0  0  0  0  0
    0.4149    1.9051    0.0242 C   0  0  0  0  0  0  0  0  0  0  0  0
    1.2545    0.8936   -0.5515 C   0  0  0  0  0  0  0  0  0  0  0  0
  1 36  1  0  0  0  0
  2 29  1  0  0  0  0
  4  5  1  0  0  0  0
  5 30  2  0  0  0  0
  7 19  1  0  0  0  0
  7  6  1  0  0  0  0
  8 10  1  0  0  0  0
  9  8  1  0  0  0  0
 10 12  2  0  0  0  0
 10 11  1  0  0  0  0
 12 13  1  0  0  0  0
 14  4  1  0  0  0  0
 14 12  1  0  0  0  0
 15 14  2  0  0  0  0
 16 15  1  0  0  0  0
 17 15  1  0  0  0  0
 17  8  2  0  0  0  0
 18 17  1  0  0  0  0
 19 28  1  0  0  0  0
 20 19  2  0  0  0  0
 20 22  1  0  0  0  0
 21 20  1  0  0  0  0
 22 24  2  0  0  0  0
 23 22  1  0  0  0  0
 24 25  1  0  0  0  0
 24 26  1  0  0  0  0
 26 27  1  0  0  0  0
 28 29  1  0  0  0  0
 28 26  2  0  0  0  0
 29  3  2  0  0  0  0
 30 31  1  0  0  0  0
 31 34  1  0  0  0  0
 31 32  1  0  0  0  0
 33 31  1  0  0  0  0
 35  6  1  0  0  0  0
 35 30  1  0  0  0  0
 36  4  1  0  0  0  0
 36 35  2  0  0  0  0
M  CHG  2   1  -1   2  -1
M  END
