1,2,4
 OpenBabel05122313063D

 28 29  0  0  0  0  0  0  0  0999 V2000
   -1.1986   -2.4602    0.3923 O   0  5  0  0  0  0  0  0  0  0  0  0
   -0.0465    1.0866    1.1108 O   0  0  0  0  0  1  0  0  0  0  0  0
   -2.5735   -4.1326   -0.1442 O   0  0  0  0  0  0  0  0  0  0  0  0
   -2.0836    0.0697    0.1476 N   0  0  0  0  0  2  0  0  0  0  0  0
   -1.9614    1.3478   -0.0975 N   0  0  0  0  0  2  0  0  0  0  0  0
   -0.8717    1.8336    0.4093 N   0  0  0  0  0  0  0  0  0  0  0  0
   -3.2933   -0.5049   -0.2726 C   0  0  0  0  0  0  0  0  0  0  0  0
   -3.4425   -1.9198   -0.3252 C   0  0  0  0  0  0  0  0  0  0  0  0
   -2.3565   -2.9289   -0.0084 C   0  0  0  0  0  0  0  0  0  0  0  0
   -0.5352    3.1965    0.2045 C   0  0  0  0  0  0  0  0  0  0  0  0
   -4.3992    0.3131   -0.6282 C   0  0  0  0  0  0  0  0  0  0  0  0
   -4.2810    1.4026   -0.5669 H   0  0  0  0  0  0  0  0  0  0  0  0
   -4.6790   -2.4579   -0.7336 C   0  0  0  0  0  0  0  0  0  0  0  0
   -4.7348   -3.5563   -0.7647 H   0  0  0  0  0  0  0  0  0  0  0  0
   -1.3967    4.0598   -0.5035 C   0  0  0  0  0  0  0  0  0  0  0  0
   -2.3365    3.6659   -0.9103 H   0  0  0  0  0  0  0  0  0  0  0  0
   -5.6105   -0.2494   -1.0315 C   0  0  0  0  0  0  0  0  0  0  0  0
   -6.4511    0.4116   -1.2969 H   0  0  0  0  0  0  0  0  0  0  0  0
    0.6871    3.6632    0.7252 C   0  0  0  0  0  0  0  0  0  0  0  0
    1.3349    2.9545    1.2560 H   0  0  0  0  0  0  0  0  0  0  0  0
   -5.7612   -1.6475   -1.0866 C   0  0  0  0  0  0  0  0  0  0  0  0
   -6.7163   -2.0963   -1.4001 H   0  0  0  0  0  0  0  0  0  0  0  0
   -1.0255    5.3972   -0.6768 C   0  0  0  0  0  0  0  0  0  0  0  0
   -1.6961    6.0725   -1.2303 H   0  0  0  0  0  0  0  0  0  0  0  0
    0.1896    5.8805   -0.1578 C   0  0  0  0  0  0  0  0  0  0  0  0
    0.4738    6.9337   -0.3024 H   0  0  0  0  0  0  0  0  0  0  0  0
    1.0390    5.0064    0.5390 C   0  0  0  0  0  0  0  0  0  0  0  0
    1.9964    5.3706    0.9420 H   0  0  0  0  0  0  0  0  0  0  0  0
  3  9  2  0  0  0  0
  5  4  1  0  0  0  0
  5  6  1  0  0  0  0
  6  2  1  0  0  0  0
  7  4  1  0  0  0  0
  8  7  1  0  0  0  0
  8  9  1  0  0  0  0
  9  1  1  0  0  0  0
 10  6  1  0  0  0  0
 10 19  1  0  0  0  0
 11 12  1  0  0  0  0
 11  7  2  0  0  0  0
 13  8  2  0  0  0  0
 14 13  1  0  0  0  0
 15 10  2  0  0  0  0
 16 15  1  0  0  0  0
 17 11  1  0  0  0  0
 18 17  1  0  0  0  0
 19 20  1  0  0  0  0
 21 17  2  0  0  0  0
 21 13  1  0  0  0  0
 22 21  1  0  0  0  0
 23 15  1  0  0  0  0
 23 25  2  0  0  0  0
 24 23  1  0  0  0  0
 25 27  1  0  0  0  0
 26 25  1  0  0  0  0
 27 19  2  0  0  0  0
 27 28  1  0  0  0  0
M  CHG  1   1  -1
M  END
