1,2,5
 OpenBabel05122313063D

 30 31  0  0  0  0  0  0  0  0999 V2000
   -3.5170    0.1344   -0.3059 O   0  5  0  0  0  0  0  0  0  0  0  0
    0.0357   -0.7104   -0.9260 O   0  5  0  0  0  0  0  0  0  0  0  0
    6.6136   -2.7554   -0.3806 O   0  0  0  0  0  0  0  0  0  0  0  0
    5.9945   -4.5509    0.7025 O   0  0  0  0  0  0  0  0  0  0  0  0
   -1.8827   -1.9581   -0.0170 N   0  0  0  0  0  2  0  0  0  0  0  0
   -0.6893   -2.5805    0.1909 N   0  0  0  0  0  0  0  0  0  0  0  0
    5.7621   -3.4947    0.1141 N   0  0  0  0  0  0  0  0  0  0  0  0
   -4.5235   -0.6642   -0.0115 C   0  0  0  0  0  0  0  0  0  0  0  0
   -5.8460   -0.1587    0.0127 C   0  0  0  0  0  0  0  0  0  0  0  0
   -5.9983    0.8976   -0.2500 H   0  0  0  0  0  0  0  0  0  0  0  0
   -6.9126   -0.9904    0.3581 C   0  0  0  0  0  0  0  0  0  0  0  0
   -7.9345   -0.5808    0.3618 H   0  0  0  0  0  0  0  0  0  0  0  0
   -6.6994   -2.3436    0.7041 C   0  0  0  0  0  0  0  0  0  0  0  0
   -7.5482   -2.9869    0.9763 H   0  0  0  0  0  0  0  0  0  0  0  0
   -5.4033   -2.8521    0.7015 C   0  0  0  0  0  0  0  0  0  0  0  0
   -5.2160   -3.9020    0.9763 H   0  0  0  0  0  0  0  0  0  0  0  0
   -4.2962   -2.0390    0.3386 C   0  0  0  0  0  0  0  0  0  0  0  0
   -2.9679   -2.5743    0.4005 C   0  0  0  0  0  3  0  0  0  0  0  0
   -2.8159   -3.5757    0.8436 H   0  0  0  0  0  0  0  0  0  0  0  0
    0.2783   -1.8452   -0.3281 C   0  0  0  0  0  0  0  0  0  0  0  0
    1.6826   -2.2925   -0.2217 C   0  0  0  0  0  0  0  0  0  0  0  0
    2.0132   -3.4935    0.4460 C   0  0  0  0  0  0  0  0  0  0  0  0
    1.2019   -4.0983    0.8745 H   0  0  0  0  0  0  0  0  0  0  0  0
    3.3471   -3.8914    0.5559 C   0  0  0  0  0  0  0  0  0  0  0  0
    3.6430   -4.8167    1.0674 H   0  0  0  0  0  0  0  0  0  0  0  0
    4.3433   -3.0786   -0.0066 C   0  0  0  0  0  0  0  0  0  0  0  0
    4.0420   -1.8854   -0.6774 C   0  0  0  0  0  0  0  0  0  0  0  0
    4.8629   -1.2921   -1.1012 H   0  0  0  0  0  0  0  0  0  0  0  0
    2.7044   -1.4944   -0.7834 C   0  0  0  0  0  0  0  0  0  0  0  0
    2.4241   -0.5676   -1.3041 H   0  0  0  0  0  0  0  0  0  0  0  0
  1  8  1  0  0  0  0
  2 20  1  0  0  0  0
  3  7  2  0  0  0  0
  5  6  1  0  0  0  0
  5 18  1  0  0  0  0
  7  4  2  0  0  0  0
  8  9  2  0  0  0  0
  8 17  1  0  0  0  0
  9 11  1  0  0  0  0
 10  9  1  0  0  0  0
 11 12  1  0  0  0  0
 11 13  2  0  0  0  0
 13 14  1  0  0  0  0
 15 13  1  0  0  0  0
 15 16  1  0  0  0  0
 17 18  1  0  0  0  0
 17 15  2  0  0  0  0
 18 19  1  0  0  0  0
 20 21  1  0  0  0  0
 20  6  2  0  0  0  0
 21 22  1  0  0  0  0
 22 24  2  0  0  0  0
 22 23  1  0  0  0  0
 24 25  1  0  0  0  0
 26  7  1  0  0  0  0
 26 24  1  0  0  0  0
 27 26  2  0  0  0  0
 28 27  1  0  0  0  0
 29 27  1  0  0  0  0
 29 21  2  0  0  0  0
 30 29  1  0  0  0  0
M  CHG  2   1  -1   2  -1
M  END
