1,5,9
 OpenBabel05122313063D

 36 37  0  0  1  0  0  0  0  0999 V2000
   -0.5046    0.5571    0.1272 N   0  0  0  0  0  2  0  0  0  0  0  0
   -2.7028    0.4261   -0.0420 C   0  0  0  0  0  0  0  0  0  0  0  0
   -1.6896    1.2313    0.1839 N   0  0  0  0  0  0  0  0  0  0  0  0
   -4.0826    0.9414   -0.0551 C   0  0  0  0  0  0  0  0  0  0  0  0
   -2.5422   -0.8708   -0.2597 O   0  5  0  0  0  0  0  0  0  0  0  0
   -5.5993    2.8185    0.1882 N   0  0  0  0  0  0  0  0  0  0  0  0
   -5.1662    0.0771   -0.3106 C   0  0  0  0  0  0  0  0  0  0  0  0
   -4.9734   -0.9882   -0.5032 H   0  0  0  0  0  0  0  0  0  0  0  0
    1.0639   -1.6456    0.5052 O   0  5  0  0  0  0  0  0  0  0  0  0
   -6.4602    0.6087   -0.3121 C   0  0  0  0  0  0  0  0  0  0  0  0
   -7.3349   -0.0291   -0.5082 H   0  0  0  0  0  0  0  0  0  0  0  0
    5.7224   -1.1692    0.1117 O   0  0  0  0  0  0  0  0  0  0  0  0
    6.3795   -0.3902   -0.0269 H   0  0  0  0  0  0  0  0  0  0  0  0
   -6.6227    1.9808   -0.0577 C   0  0  0  0  0  0  0  0  0  0  0  0
   -7.6328    2.4285   -0.0525 H   0  0  0  0  0  0  0  0  0  0  0  0
   -4.3638    2.3072    0.1871 C   0  0  0  0  0  0  0  0  0  0  0  0
   -3.5283    2.9988    0.3885 H   0  0  0  0  0  0  0  0  0  0  0  0
    6.7157    1.1064   -0.2270 O   0  0  0  0  0  0  0  0  0  0  0  0
    0.6148    1.2618    0.2161 C   0  0  2  0  0  3  0  0  0  0  0  0
    0.5488    2.7609    0.3380 C   0  0  0  0  0  0  0  0  0  0  0  0
    0.8154    3.2380   -0.6287 H   0  0  0  0  0  0  0  0  0  0  0  0
    1.2554    3.1322    1.1038 H   0  0  0  0  0  0  0  0  0  0  0  0
   -0.4802    3.0656    0.5905 H   0  0  0  0  0  0  0  0  0  0  0  0
    1.9172    0.6036    0.1679 C   0  0  0  0  0  0  0  0  0  0  0  0
    3.0848    1.3765    0.0083 C   0  0  0  0  0  0  0  0  0  0  0  0
    2.9807    2.4622   -0.1113 H   0  0  0  0  0  0  0  0  0  0  0  0
    4.3791    0.8289   -0.0264 C   0  0  0  0  0  0  0  0  0  0  0  0
    4.5279   -0.5990    0.1271 C   0  0  0  0  0  0  0  0  0  0  0  0
    3.3772   -1.3923    0.2945 C   0  0  0  0  0  0  0  0  0  0  0  0
    3.4808   -2.4790    0.4105 H   0  0  0  0  0  0  0  0  0  0  0  0
    2.0978   -0.8239    0.3086 C   0  0  0  0  0  0  0  0  0  0  0  0
    5.5847    1.6437   -0.2111 C   0  0  0  0  0  0  0  0  0  0  0  0
    5.4804    3.1418   -0.3860 C   0  0  0  0  0  0  0  0  0  0  0  0
    6.4969    3.5571   -0.5019 H   0  0  0  0  0  0  0  0  0  0  0  0
    4.9889    3.6134    0.4890 H   0  0  0  0  0  0  0  0  0  0  0  0
    4.8761    3.3967   -1.2802 H   0  0  0  0  0  0  0  0  0  0  0  0
  1  3  1  0  0  0  0
  2  3  2  0  0  0  0
  4  2  1  0  0  0  0
  4 16  1  0  0  0  0
  5  2  1  0  0  0  0
  7  4  2  0  0  0  0
  8  7  1  0  0  0  0
 10  7  1  0  0  0  0
 10 14  2  0  0  0  0
 11 10  1  0  0  0  0
 12 28  1  0  0  0  0
 13 12  1  0  0  0  0
 14 15  1  0  0  0  0
 14  6  1  0  0  0  0
 16  6  2  0  0  0  0
 16 17  1  0  0  0  0
 18 32  2  0  0  0  0
 19  1  1  6  0  0  0
 19 20  1  0  0  0  0
 20 23  1  0  0  0  0
 20 22  1  0  0  0  0
 21 20  1  0  0  0  0
 24 19  1  0  0  0  0
 24 31  1  0  0  0  0
 25 24  2  0  0  0  0
 26 25  1  0  0  0  0
 27 25  1  0  0  0  0
 27 28  2  0  0  0  0
 28 29  1  0  0  0  0
 29 31  2  0  0  0  0
 29 30  1  0  0  0  0
 31  9  1  0  0  0  0
 32 27  1  0  0  0  0
 33 32  1  0  0  0  0
 33 35  1  0  0  0  0
 34 33  1  0  0  0  0
 36 33  1  0  0  0  0
M  CHG  2   5  -1   9  -1
M  END
