1,5,8
 OpenBabel05122313063D

 37 38  0  0  1  0  0  0  0  0999 V2000
   -0.1120   -0.9050   -0.0854 N   0  0  0  0  0  2  0  0  0  0  0  0
   -2.3058   -1.0357   -0.3608 C   0  0  0  0  0  0  0  0  0  0  0  0
   -1.2437   -1.6402    0.1249 N   0  0  0  0  0  0  0  0  0  0  0  0
   -3.6416   -1.6515   -0.2215 C   0  0  0  0  0  0  0  0  0  0  0  0
   -2.2466    0.1368   -0.9643 O   0  5  0  0  0  0  0  0  0  0  0  0
   -3.8080   -2.8827    0.4508 C   0  0  0  0  0  0  0  0  0  0  0  0
   -2.9197   -3.3832    0.8606 H   0  0  0  0  0  0  0  0  0  0  0  0
    1.2913    1.4500   -0.3965 O   0  5  0  0  0  0  0  0  0  0  0  0
   -5.0834   -3.4415    0.5865 C   0  0  0  0  0  0  0  0  0  0  0  0
   -5.2066   -4.4011    1.1113 H   0  0  0  0  0  0  0  0  0  0  0  0
    5.9771    1.3159   -0.1951 O   0  0  0  0  0  0  0  0  0  0  0  0
    6.6895    0.5966   -0.0181 H   0  0  0  0  0  0  0  0  0  0  0  0
   -6.2062   -2.7829    0.0537 C   0  0  0  0  0  0  0  0  0  0  0  0
   -7.2078   -3.2267    0.1609 H   0  0  0  0  0  0  0  0  0  0  0  0
   -6.0463   -1.5603   -0.6183 C   0  0  0  0  0  0  0  0  0  0  0  0
   -6.9219   -1.0453   -1.0418 H   0  0  0  0  0  0  0  0  0  0  0  0
    7.1391   -0.8505    0.3047 O   0  0  0  0  0  0  0  0  0  0  0  0
   -4.7716   -0.9951   -0.7568 C   0  0  0  0  0  0  0  0  0  0  0  0
   -4.6258   -0.0431   -1.2867 H   0  0  0  0  0  0  0  0  0  0  0  0
    1.0475   -1.4337    0.2736 C   0  0  1  0  0  3  0  0  0  0  0  0
    1.0878   -2.8257    0.8498 C   0  0  0  0  0  0  0  0  0  0  0  0
    0.0606   -3.1617    1.0662 H   0  0  0  0  0  0  0  0  0  0  0  0
    1.7000   -2.8578    1.7713 H   0  0  0  0  0  0  0  0  0  0  0  0
    1.5366   -3.5340    0.1224 H   0  0  0  0  0  0  0  0  0  0  0  0
    2.3006   -0.6989    0.1101 C   0  0  0  0  0  0  0  0  0  0  0  0
    3.5250   -1.3664    0.3049 C   0  0  0  0  0  0  0  0  0  0  0  0
    3.5041   -2.4384    0.5371 H   0  0  0  0  0  0  0  0  0  0  0  0
    4.7814   -0.7403    0.2047 C   0  0  0  0  0  0  0  0  0  0  0  0
    4.8230    0.6707   -0.0984 C   0  0  0  0  0  0  0  0  0  0  0  0
    3.6155    1.3627   -0.2939 C   0  0  0  0  0  0  0  0  0  0  0  0
    3.6367    2.4351   -0.5273 H   0  0  0  0  0  0  0  0  0  0  0  0
    2.3749    0.7122   -0.2089 C   0  0  0  0  0  0  0  0  0  0  0  0
    6.0443   -1.4546    0.3953 C   0  0  0  0  0  0  0  0  0  0  0  0
    6.0503   -2.9361    0.7039 C   0  0  0  0  0  0  0  0  0  0  0  0
    7.0970   -3.2705    0.8137 H   0  0  0  0  0  0  0  0  0  0  0  0
    5.5641   -3.5142   -0.1080 H   0  0  0  0  0  0  0  0  0  0  0  0
    5.4959   -3.1528    1.6394 H   0  0  0  0  0  0  0  0  0  0  0  0
  1  3  1  0  0  0  0
  2  4  1  0  0  0  0
  2  3  2  0  0  0  0
  4  6  1  0  0  0  0
  5  2  1  0  0  0  0
  6  9  2  0  0  0  0
  6  7  1  0  0  0  0
  8 32  1  0  0  0  0
  9 10  1  0  0  0  0
 11 29  1  0  0  0  0
 11 12  1  0  0  0  0
 13 14  1  0  0  0  0
 13  9  1  0  0  0  0
 15 13  2  0  0  0  0
 16 15  1  0  0  0  0
 17 33  2  0  0  0  0
 18 15  1  0  0  0  0
 18  4  2  0  0  0  0
 19 18  1  0  0  0  0
 20  1  1  6  0  0  0
 20 21  1  0  0  0  0
 21 22  1  0  0  0  0
 21 23  1  0  0  0  0
 24 21  1  0  0  0  0
 25 20  1  0  0  0  0
 25 26  1  0  0  0  0
 26 27  1  0  0  0  0
 28 26  2  0  0  0  0
 28 33  1  0  0  0  0
 29 28  1  0  0  0  0
 30 32  1  0  0  0  0
 30 29  2  0  0  0  0
 31 30  1  0  0  0  0
 32 25  2  0  0  0  0
 33 34  1  0  0  0  0
 34 35  1  0  0  0  0
 34 37  1  0  0  0  0
 36 34  1  0  0  0  0
M  CHG  2   5  -1   8  -1
M  END
