3,5,6
 OpenBabel05122313063D

 28 29  0  0  0  0  0  0  0  0999 V2000
   -4.8523    0.7556   -0.5715 Br  0  0  0  0  0  0  0  0  0  0  0  0
    3.5882   -3.3631    1.4994 F   0  0  0  0  0  0  0  0  0  0  0  0
    0.0146   -1.8409    0.3690 N   0  0  0  0  0  2  0  0  0  0  0  0
    1.3093   -2.2047    0.5844 N   0  0  0  0  0  0  0  0  0  0  0  0
   -1.9922   -0.2465   -0.3532 O   0  5  0  0  0  0  0  0  0  0  0  0
    1.5942   -0.6804   -1.1048 O   0  5  0  0  0  0  0  0  0  0  0  0
   -2.3048   -2.1338    1.0869 C   0  0  0  0  0  0  0  0  0  0  0  0
   -2.7996   -1.0143    0.3375 C   0  0  0  0  0  0  0  0  0  0  0  0
   -4.1931   -0.7332    0.4011 C   0  0  0  0  0  0  0  0  0  0  0  0
   -5.0589   -1.5271    1.1584 C   0  0  0  0  0  0  0  0  0  0  0  0
   -6.1303   -1.2808    1.1758 H   0  0  0  0  0  0  0  0  0  0  0  0
   -4.5622   -2.6257    1.8897 C   0  0  0  0  0  0  0  0  0  0  0  0
   -5.2531   -3.2423    2.4821 H   0  0  0  0  0  0  0  0  0  0  0  0
   -3.2006   -2.9181    1.8587 C   0  0  0  0  0  0  0  0  0  0  0  0
   -2.7982   -3.7681    2.4308 H   0  0  0  0  0  0  0  0  0  0  0  0
   -0.8990   -2.4259    1.1119 C   0  0  0  0  0  3  0  0  0  0  0  0
   -0.5283   -3.1939    1.8151 H   0  0  0  0  0  0  0  0  0  0  0  0
    2.0908   -1.5433   -0.2503 C   0  0  0  0  0  0  0  0  0  0  0  0
    3.5546   -1.7348   -0.2585 C   0  0  0  0  0  0  0  0  0  0  0  0
    4.2468   -2.6213    0.6018 C   0  0  0  0  0  0  0  0  0  0  0  0
    5.6399   -2.7539    0.5467 C   0  0  0  0  0  0  0  0  0  0  0  0
    6.1229   -3.4582    1.2390 H   0  0  0  0  0  0  0  0  0  0  0  0
    6.3764   -1.9997   -0.3764 C   0  0  0  0  0  0  0  0  0  0  0  0
    7.4707   -2.1084   -0.4168 H   0  0  0  0  0  0  0  0  0  0  0  0
    5.7164   -1.1125   -1.2437 C   0  0  0  0  0  0  0  0  0  0  0  0
    6.2890   -0.5194   -1.9716 H   0  0  0  0  0  0  0  0  0  0  0  0
    4.3258   -0.9870   -1.1798 C   0  0  0  0  0  0  0  0  0  0  0  0
    3.7835   -0.3025   -1.8468 H   0  0  0  0  0  0  0  0  0  0  0  0
  1  9  1  0  0  0  0
  3  4  1  0  0  0  0
  3 16  1  0  0  0  0
  5  8  1  0  0  0  0
  6 18  1  0  0  0  0
  7 16  1  0  0  0  0
  7 14  1  0  0  0  0
  8  9  1  0  0  0  0
  8  7  2  0  0  0  0
  9 10  2  0  0  0  0
 10 11  1  0  0  0  0
 10 12  1  0  0  0  0
 12 13  1  0  0  0  0
 14 12  2  0  0  0  0
 14 15  1  0  0  0  0
 16 17  1  0  0  0  0
 18  4  2  0  0  0  0
 19 18  1  0  0  0  0
 19 20  1  0  0  0  0
 20  2  1  0  0  0  0
 21 20  2  0  0  0  0
 21 22  1  0  0  0  0
 23 21  1  0  0  0  0
 24 23  1  0  0  0  0
 25 27  1  0  0  0  0
 25 23  2  0  0  0  0
 26 25  1  0  0  0  0
 27 19  2  0  0  0  0
 28 27  1  0  0  0  0
M  CHG  2   5  -1   6  -1
M  END
