1,2,3
 OpenBabel05122313063D

 25 25  0  0  1  0  0  0  0  0999 V2000
   -0.9982   -1.0066   -1.1577 O   0  5  0  0  0  0  0  0  0  0  0  0
    1.6611    0.6022   -1.1589 O   0  5  0  0  0  0  0  0  0  0  0  0
   -0.6127    1.1047    0.2106 N   0  0  0  0  0  2  0  0  0  0  0  0
   -2.1103   -0.3822   -0.7728 C   0  0  0  0  0  0  0  0  0  0  0  0
   -3.3816   -0.8414   -1.1693 C   0  0  0  0  0  0  0  0  0  0  0  0
   -3.4412   -1.7381   -1.8016 H   0  0  0  0  0  0  0  0  0  0  0  0
   -4.5171   -0.1648   -0.7224 C   0  0  0  0  0  0  0  0  0  0  0  0
   -5.5168   -0.5247   -1.0070 H   0  0  0  0  0  0  0  0  0  0  0  0
   -4.3877    0.9660    0.1119 C   0  0  0  0  0  0  0  0  0  0  0  0
   -5.2898    1.4759    0.4813 H   0  0  0  0  0  0  0  0  0  0  0  0
   -3.1315    1.4492    0.4911 C   0  0  0  0  0  0  0  0  0  0  0  0
   -3.0778    2.3136    1.1592 H   0  0  0  0  0  0  0  0  0  0  0  0
   -1.9566    0.7905    0.0476 C   0  0  0  0  0  0  0  0  0  0  0  0
   -0.0806    2.2995    0.4925 C   0  0  2  0  0  3  0  0  0  0  0  0
   -0.8572    3.4156    1.1411 C   0  0  0  0  0  0  0  0  0  0  0  0
   -1.6760    3.7662    0.4780 H   0  0  0  0  0  0  0  0  0  0  0  0
   -0.1991    4.2762    1.3565 H   0  0  0  0  0  0  0  0  0  0  0  0
   -1.3184    3.0774    2.0900 H   0  0  0  0  0  0  0  0  0  0  0  0
    1.2490    2.5928    0.0693 C   0  0  0  0  0  0  0  0  0  0  0  0
    1.6449    3.5857    0.3209 H   0  0  0  0  0  0  0  0  0  0  0  0
    1.9955    1.8222   -0.8252 C   0  0  0  0  0  0  0  0  0  0  0  0
    3.2429    2.3323   -1.4829 C   0  0  0  0  0  0  0  0  0  0  0  0
    4.1097    1.7374   -1.1257 H   0  0  0  0  0  0  0  0  0  0  0  0
    3.4236    3.4014   -1.2713 H   0  0  0  0  0  0  0  0  0  0  0  0
    3.1772    2.1754   -2.5785 H   0  0  0  0  0  0  0  0  0  0  0  0
  1  4  1  0  0  0  0
  2 21  1  0  0  0  0
  3 14  1  0  0  0  0
  4 13  1  0  0  0  0
  5  4  2  0  0  0  0
  5  7  1  0  0  0  0
  6  5  1  0  0  0  0
  7  9  2  0  0  0  0
  8  7  1  0  0  0  0
  9 10  1  0  0  0  0
  9 11  1  0  0  0  0
 11 12  1  0  0  0  0
 13  3  1  0  0  0  0
 13 11  2  0  0  0  0
 14 19  1  6  0  0  0
 14 15  1  0  0  0  0
 15 17  1  0  0  0  0
 15 18  1  0  0  0  0
 16 15  1  0  0  0  0
 19 20  1  0  0  0  0
 21 19  2  0  0  0  0
 22 24  1  0  0  0  0
 22 23  1  0  0  0  0
 22 21  1  0  0  0  0
 25 22  1  0  0  0  0
M  CHG  2   1  -1   2  -1
M  END
