2,4,5
 OpenBabel05122313063D

 35 37  0  0  0  0  0  0  0  0999 V2000
   -6.8395    2.6454   -0.2689 Cl  0  0  0  0  0  0  0  0  0  0  0  0
   -0.7957    0.5325   -0.0710 N   0  0  0  0  0  2  0  0  0  0  0  0
    0.4345    1.1011    0.0160 N   0  0  0  0  0  0  0  0  0  0  0  0
   -2.6426   -1.4865    0.0907 O   0  5  0  0  0  0  0  0  0  0  0  0
    1.1223   -1.0837   -0.2337 O   0  5  0  0  0  0  0  0  0  0  0  0
    2.2119    2.9740    0.2365 O   0  0  0  0  0  0  0  0  0  0  0  0
    1.3133    2.5157    0.1836 H   0  0  0  0  0  0  0  0  0  0  0  0
   -3.2098    0.8621   -0.0802 C   0  0  0  0  0  0  0  0  0  0  0  0
   -3.5597   -0.5251   -0.0265 C   0  0  0  0  0  0  0  0  0  0  0  0
   -4.9224   -0.8933   -0.0537 C   0  0  0  0  0  0  0  0  0  0  0  0
   -5.1683   -1.9636   -0.0122 H   0  0  0  0  0  0  0  0  0  0  0  0
   -5.9265    0.0740   -0.1309 C   0  0  0  0  0  0  0  0  0  0  0  0
   -6.9853   -0.2201   -0.1553 H   0  0  0  0  0  0  0  0  0  0  0  0
   -5.5828    1.4412   -0.1764 C   0  0  0  0  0  0  0  0  0  0  0  0
   -4.2440    1.8311   -0.1472 C   0  0  0  0  0  0  0  0  0  0  0  0
   -3.9848    2.8991   -0.1839 H   0  0  0  0  0  0  0  0  0  0  0  0
   -1.8431    1.3205   -0.0364 C   0  0  0  0  0  3  0  0  0  0  0  0
   -1.6582    2.4096    0.0263 H   0  0  0  0  0  0  0  0  0  0  0  0
    1.4029    0.1928   -0.0943 C   0  0  0  0  0  0  0  0  0  0  0  0
    2.7976    0.6204   -0.0509 C   0  0  0  0  0  0  0  0  0  0  0  0
    3.1440    2.0206    0.1144 C   0  0  0  0  0  0  0  0  0  0  0  0
    4.4939    2.3763    0.1486 C   0  0  0  0  0  0  0  0  0  0  0  0
    4.7432    3.4400    0.2744 H   0  0  0  0  0  0  0  0  0  0  0  0
    5.5248    1.4118    0.0257 C   0  0  0  0  0  0  0  0  0  0  0  0
    6.9086    1.7650    0.0583 C   0  0  0  0  0  0  0  0  0  0  0  0
    7.1807    2.8244    0.1836 H   0  0  0  0  0  0  0  0  0  0  0  0
    7.8923    0.7967   -0.0656 C   0  0  0  0  0  0  0  0  0  0  0  0
    8.9532    1.0895   -0.0385 H   0  0  0  0  0  0  0  0  0  0  0  0
    7.5493   -0.5765   -0.2288 C   0  0  0  0  0  0  0  0  0  0  0  0
    8.3445   -1.3304   -0.3263 H   0  0  0  0  0  0  0  0  0  0  0  0
    6.2184   -0.9560   -0.2649 C   0  0  0  0  0  0  0  0  0  0  0  0
    5.9384   -2.0134   -0.3916 H   0  0  0  0  0  0  0  0  0  0  0  0
    5.1780    0.0152   -0.1400 C   0  0  0  0  0  0  0  0  0  0  0  0
    3.8105   -0.3387   -0.1728 C   0  0  0  0  0  0  0  0  0  0  0  0
    3.5179   -1.3915   -0.2989 H   0  0  0  0  0  0  0  0  0  0  0  0
  1 14  1  0  0  0  0
  2 17  1  0  0  0  0
  2  3  1  0  0  0  0
  5 19  1  0  0  0  0
  7  6  1  0  0  0  0
  8 17  1  0  0  0  0
  8  9  1  0  0  0  0
  9  4  1  0  0  0  0
 10  9  2  0  0  0  0
 10 11  1  0  0  0  0
 12 10  1  0  0  0  0
 13 12  1  0  0  0  0
 14 15  1  0  0  0  0
 14 12  2  0  0  0  0
 15  8  2  0  0  0  0
 16 15  1  0  0  0  0
 17 18  1  0  0  0  0
 19 20  1  0  0  0  0
 19  3  2  0  0  0  0
 20 21  1  0  0  0  0
 21 22  2  0  0  0  0
 21  6  1  0  0  0  0
 22 23  1  0  0  0  0
 24 25  1  0  0  0  0
 24 22  1  0  0  0  0
 25 26  1  0  0  0  0
 27 28  1  0  0  0  0
 27 25  2  0  0  0  0
 29 27  1  0  0  0  0
 30 29  1  0  0  0  0
 31 29  2  0  0  0  0
 31 33  1  0  0  0  0
 32 31  1  0  0  0  0
 33 24  2  0  0  0  0
 34 33  1  0  0  0  0
 34 20  2  0  0  0  0
 35 34  1  0  0  0  0
M  CHG  2   4  -1   5  -1
M  END
