2,4,7
 OpenBabel05122313063D

 26 26  0  0  0  0  0  0  0  0999 V2000
   -1.7603    3.2681    0.4259 S   0  0  0  0  0  0  0  0  0  0  0  0
    1.2369   -0.4632   -1.2450 O   0  5  0  0  0  0  0  0  0  0  0  0
    7.4928   -1.6644   -0.5536 O   0  0  0  0  0  0  0  0  0  0  0  0
   -1.7824    1.7347    0.5332 O   0  0  0  0  0  1  0  0  0  0  0  0
   -1.7751    3.7066   -1.0276 O   0  0  0  0  0  1  0  0  0  0  0  0
   -2.7497    3.9225    1.3009 O   0  0  0  0  0  1  0  0  0  0  0  0
    1.1298    1.5901    0.8534 N   0  0  0  0  0  2  0  0  0  0  0  0
    2.4755   -0.5234   -0.9231 C   0  0  0  0  0  0  0  0  0  0  0  0
    3.3355   -1.4639   -1.6052 C   0  0  0  0  0  0  0  0  0  0  0  0
    2.8542   -2.0881   -2.3730 H   0  0  0  0  0  0  0  0  0  0  0  0
    4.6789   -1.5780   -1.3167 C   0  0  0  0  0  0  0  0  0  0  0  0
    5.3240   -2.2998   -1.8422 H   0  0  0  0  0  0  0  0  0  0  0  0
    5.2878   -0.7572   -0.3191 C   0  0  0  0  0  0  0  0  0  0  0  0
    4.4895    0.1660    0.3597 C   0  0  0  0  0  0  0  0  0  0  0  0
    4.9543    0.8065    1.1311 H   0  0  0  0  0  0  0  0  0  0  0  0
    3.1048    0.3122    0.1006 C   0  0  0  0  0  0  0  0  0  0  0  0
    2.4011    1.2990    0.8802 C   0  0  0  0  0  3  0  0  0  0  0  0
    3.0443    1.8605    1.5999 H   0  0  0  0  0  0  0  0  0  0  0  0
    0.6400    2.6148    1.7664 C   0  0  0  0  0  0  0  0  0  0  0  0
    1.4808    3.0369    2.3663 H   0  0  0  0  0  0  0  0  0  0  0  0
   -0.0785    2.1491    2.4765 H   0  0  0  0  0  0  0  0  0  0  0  0
   -0.0758    3.7468    1.0358 C   0  0  0  0  0  0  0  0  0  0  0  0
    0.4984    4.0875    0.1533 H   0  0  0  0  0  0  0  0  0  0  0  0
   -0.2579    4.6076    1.7063 H   0  0  0  0  0  0  0  0  0  0  0  0
    6.7201   -0.8824   -0.0148 C   0  0  0  0  0  0  0  0  0  0  0  0
    7.0793   -0.1708    0.7938 H   0  0  0  0  0  0  0  0  0  0  0  0
  1  4  1  0  0  0  0
  1 22  1  0  0  0  0
  1  6  1  0  0  0  0
  2  8  1  0  0  0  0
  3 25  2  0  0  0  0
  5  1  1  0  0  0  0
  7 17  1  0  0  0  0
  7 19  1  0  0  0  0
  8 16  1  0  0  0  0
  9 11  1  0  0  0  0
  9  8  2  0  0  0  0
 10  9  1  0  0  0  0
 11 13  2  0  0  0  0
 12 11  1  0  0  0  0
 13 25  1  0  0  0  0
 13 14  1  0  0  0  0
 14 15  1  0  0  0  0
 16 14  2  0  0  0  0
 16 17  1  0  0  0  0
 17 18  1  0  0  0  0
 19 20  1  0  0  0  0
 19 21  1  0  0  0  0
 22 24  1  0  0  0  0
 22 19  1  0  0  0  0
 23 22  1  0  0  0  0
 25 26  1  0  0  0  0
M  CHG  1   2  -1
M  END
