1,2,3
 OpenBabel05122313063D

 54 57  0  0  1  0  0  0  0  0999 V2000
   -1.3050   -0.8622   -0.6392 O   0  0  0  0  0  1  0  0  0  0  0  0
    2.1080   -1.6377    0.1223 O   0  5  0  0  0  0  0  0  0  0  0  0
    0.5276    0.4718    0.3769 N   0  0  0  0  0  2  0  0  0  0  0  0
   -1.7996    0.0761    0.2843 C   0  0  0  0  0  0  0  0  0  0  0  0
   -0.7271    1.2061    0.2612 C   0  0  2  0  0  0  0  0  0  0  0  0
   -0.8487    1.9082    1.1139 H   0  0  0  0  0  0  0  0  0  0  0  0
   -0.7516    2.0289   -1.0544 C   0  0  0  0  0  0  0  0  0  0  0  0
   -0.7258    1.3216   -1.9058 H   0  0  0  0  0  0  0  0  0  0  0  0
   -1.7192    2.5672   -1.0892 H   0  0  0  0  0  0  0  0  0  0  0  0
   -3.1758    0.5744   -0.1733 C   0  0  0  0  0  0  0  0  0  0  0  0
   -3.9180    1.4861    0.6029 C   0  0  0  0  0  0  0  0  0  0  0  0
   -3.5368    1.8183    1.5797 H   0  0  0  0  0  0  0  0  0  0  0  0
   -5.1537    1.9677    0.1471 C   0  0  0  0  0  0  0  0  0  0  0  0
   -5.7216    2.6809    0.7640 H   0  0  0  0  0  0  0  0  0  0  0  0
   -5.6693    1.5357   -1.0857 C   0  0  0  0  0  0  0  0  0  0  0  0
   -6.6415    1.9102   -1.4407 H   0  0  0  0  0  0  0  0  0  0  0  0
   -4.9386    0.6199   -1.8574 C   0  0  0  0  0  0  0  0  0  0  0  0
   -5.3365    0.2715   -2.8230 H   0  0  0  0  0  0  0  0  0  0  0  0
   -3.6976    0.1442   -1.4061 C   0  0  0  0  0  0  0  0  0  0  0  0
   -3.1100   -0.5697   -2.0000 H   0  0  0  0  0  0  0  0  0  0  0  0
   -1.8940   -0.5748    1.6789 C   0  0  0  0  0  0  0  0  0  0  0  0
   -2.0613   -1.9719    1.7528 C   0  0  0  0  0  0  0  0  0  0  0  0
   -2.0854   -2.5503    0.8181 H   0  0  0  0  0  0  0  0  0  0  0  0
   -2.1678   -2.6149    2.9941 C   0  0  0  0  0  0  0  0  0  0  0  0
   -2.2939   -3.7078    3.0306 H   0  0  0  0  0  0  0  0  0  0  0  0
   -2.1076   -1.8733    4.1844 C   0  0  0  0  0  0  0  0  0  0  0  0
   -2.1863   -2.3784    5.1591 H   0  0  0  0  0  0  0  0  0  0  0  0
   -1.9360   -0.4826    4.1217 C   0  0  0  0  0  0  0  0  0  0  0  0
   -1.8758    0.1097    5.0476 H   0  0  0  0  0  0  0  0  0  0  0  0
   -1.8302    0.1607    2.8785 C   0  0  0  0  0  0  0  0  0  0  0  0
   -1.6828    1.2511    2.8585 H   0  0  0  0  0  0  0  0  0  0  0  0
    0.4027    2.9954   -1.1199 C   0  0  0  0  0  0  0  0  0  0  0  0
    1.6226    2.6170   -1.7200 C   0  0  0  0  0  0  0  0  0  0  0  0
    1.6972    1.6289   -2.2007 H   0  0  0  0  0  0  0  0  0  0  0  0
    2.7316    3.4764   -1.6911 C   0  0  0  0  0  0  0  0  0  0  0  0
    3.6762    3.1626   -2.1609 H   0  0  0  0  0  0  0  0  0  0  0  0
    2.6398    4.7280   -1.0617 C   0  0  0  0  0  0  0  0  0  0  0  0
    3.5099    5.4018   -1.0386 H   0  0  0  0  0  0  0  0  0  0  0  0
    1.4288    5.1189   -0.4667 C   0  0  0  0  0  0  0  0  0  0  0  0
    1.3457    6.1027    0.0205 H   0  0  0  0  0  0  0  0  0  0  0  0
    0.3214    4.2578   -0.4963 C   0  0  0  0  0  0  0  0  0  0  0  0
   -0.6273    4.5682   -0.0282 H   0  0  0  0  0  0  0  0  0  0  0  0
    1.5384    1.0202    0.9876 C   0  0  0  0  0  3  0  0  0  0  0  0
    1.4009    2.0213    1.4458 H   0  0  0  0  0  0  0  0  0  0  0  0
    2.8381    0.4237    1.1210 C   0  0  0  0  0  0  0  0  0  0  0  0
    3.8949    1.1519    1.7243 C   0  0  0  0  0  0  0  0  0  0  0  0
    3.6989    2.1846    2.0544 H   0  0  0  0  0  0  0  0  0  0  0  0
    5.1551    0.5826    1.8849 C   0  0  0  0  0  0  0  0  0  0  0  0
    5.9728    1.1557    2.3446 H   0  0  0  0  0  0  0  0  0  0  0  0
    5.3700   -0.7457    1.4505 C   0  0  0  0  0  0  0  0  0  0  0  0
    6.3627   -1.2051    1.5773 H   0  0  0  0  0  0  0  0  0  0  0  0
    4.3476   -1.4886    0.8604 C   0  0  0  0  0  0  0  0  0  0  0  0
    4.5065   -2.5219    0.5206 H   0  0  0  0  0  0  0  0  0  0  0  0
    3.0599   -0.9191    0.6724 C   0  0  0  0  0  0  0  0  0  0  0  0
  1  4  1  0  0  0  0
  2 54  1  0  0  0  0
  3 43  1  0  0  0  0
  4 21  1  0  0  0  0
  5  4  1  0  0  0  0
  5  3  1  0  0  0  0
  5  6  1  1  0  0  0
  7  5  1  0  0  0  0
  8  7  1  0  0  0  0
  9  7  1  0  0  0  0
 10  4  1  0  0  0  0
 10 11  1  0  0  0  0
 11 12  1  0  0  0  0
 13 11  2  0  0  0  0
 13 14  1  0  0  0  0
 15 13  1  0  0  0  0
 16 15  1  0  0  0  0
 17 19  1  0  0  0  0
 17 15  2  0  0  0  0
 18 17  1  0  0  0  0
 19 10  2  0  0  0  0
 20 19  1  0  0  0  0
 21 22  2  0  0  0  0
 21 30  1  0  0  0  0
 22 24  1  0  0  0  0
 23 22  1  0  0  0  0
 24 25  1  0  0  0  0
 24 26  2  0  0  0  0
 26 27  1  0  0  0  0
 28 26  1  0  0  0  0
 28 29  1  0  0  0  0
 30 28  2  0  0  0  0
 31 30  1  0  0  0  0
 32  7  1  0  0  0  0
 32 41  1  0  0  0  0
 33 35  1  0  0  0  0
 33 32  2  0  0  0  0
 34 33  1  0  0  0  0
 35 37  2  0  0  0  0
 36 35  1  0  0  0  0
 37 38  1  0  0  0  0
 37 39  1  0  0  0  0
 39 40  1  0  0  0  0
 41 39  2  0  0  0  0
 41 42  1  0  0  0  0
 43 45  1  0  0  0  0
 43 44  1  0  0  0  0
 45 46  1  0  0  0  0
 46 48  2  0  0  0  0
 46 47  1  0  0  0  0
 48 49  1  0  0  0  0
 50 51  1  0  0  0  0
 50 48  1  0  0  0  0
 52 50  2  0  0  0  0
 53 52  1  0  0  0  0
 54 52  1  0  0  0  0
 54 45  2  0  0  0  0
M  CHG  1   2  -1
M  END
