1,3,4
 OpenBabel05122313063D

 35 35  0  0  0  0  0  0  0  0999 V2000
    1.9141    1.4813   -0.0644 N   0  0  0  0  0  2  0  0  0  0  0  0
   -4.3919   -0.2144    0.4277 N   0  0  0  0  0  0  0  0  0  0  0  0
    0.3557   -0.7491    0.2247 O   0  5  0  0  0  0  0  0  0  0  0  0
    3.9874    0.0393   -0.5347 O   0  0  0  0  0  1  0  0  0  0  0  0
   -0.5136    1.4995    0.0912 C   0  0  0  0  0  0  0  0  0  0  0  0
   -0.6785    0.0749    0.1955 C   0  0  0  0  0  0  0  0  0  0  0  0
   -1.9696   -0.4714    0.3063 C   0  0  0  0  0  0  0  0  0  0  0  0
   -2.0204   -1.5640    0.3718 H   0  0  0  0  0  0  0  0  0  0  0  0
   -3.1342    0.3392    0.3105 C   0  0  0  0  0  0  0  0  0  0  0  0
   -2.9568    1.7606    0.2048 C   0  0  0  0  0  0  0  0  0  0  0  0
   -3.8210    2.4345    0.1967 H   0  0  0  0  0  0  0  0  0  0  0  0
   -1.6858    2.3007    0.1098 C   0  0  0  0  0  0  0  0  0  0  0  0
   -1.5725    3.3945    0.0363 H   0  0  0  0  0  0  0  0  0  0  0  0
    0.7759    2.1146    0.0279 C   0  0  0  0  0  3  0  0  0  0  0  0
    0.7917    3.2256    0.0785 H   0  0  0  0  0  0  0  0  0  0  0  0
    3.1782    2.2009   -0.0298 C   0  0  0  0  0  0  0  0  0  0  0  0
    3.5551    2.2040    1.0174 H   0  0  0  0  0  0  0  0  0  0  0  0
    3.0737    3.2555   -0.3702 H   0  0  0  0  0  0  0  0  0  0  0  0
    4.1447    1.3876   -0.8944 C   0  0  0  0  0  0  0  0  0  0  0  0
    3.9056    1.5350   -1.9760 H   0  0  0  0  0  0  0  0  0  0  0  0
    5.1977    1.7023   -0.7233 H   0  0  0  0  0  0  0  0  0  0  0  0
   -5.5926    0.6134    0.3469 C   0  0  0  0  0  0  0  0  0  0  0  0
   -6.4109    0.0476    0.8369 H   0  0  0  0  0  0  0  0  0  0  0  0
   -5.4466    1.5229    0.9670 H   0  0  0  0  0  0  0  0  0  0  0  0
   -6.0109    1.0061   -1.0743 C   0  0  0  0  0  0  0  0  0  0  0  0
   -5.2015    1.5575   -1.5925 H   0  0  0  0  0  0  0  0  0  0  0  0
   -6.9079    1.6575   -1.0474 H   0  0  0  0  0  0  0  0  0  0  0  0
   -6.2551    0.1145   -1.6846 H   0  0  0  0  0  0  0  0  0  0  0  0
   -4.5684   -1.6643    0.4783 C   0  0  0  0  0  0  0  0  0  0  0  0
   -5.5510   -1.8565    0.9554 H   0  0  0  0  0  0  0  0  0  0  0  0
   -3.8100   -2.0912    1.1677 H   0  0  0  0  0  0  0  0  0  0  0  0
   -4.5006   -2.3705   -0.8802 C   0  0  0  0  0  0  0  0  0  0  0  0
   -5.3128   -2.0324   -1.5534 H   0  0  0  0  0  0  0  0  0  0  0  0
   -4.6010   -3.4669   -0.7491 H   0  0  0  0  0  0  0  0  0  0  0  0
   -3.5354   -2.1749   -1.3876 H   0  0  0  0  0  0  0  0  0  0  0  0
  1 16  1  0  0  0  0
  1 14  1  0  0  0  0
  2 29  1  0  0  0  0
  5 12  2  0  0  0  0
  5  6  1  0  0  0  0
  6  3  1  0  0  0  0
  6  7  2  0  0  0  0
  7  9  1  0  0  0  0
  7  8  1  0  0  0  0
  9  2  1  0  0  0  0
 10  9  2  0  0  0  0
 11 10  1  0  0  0  0
 12 10  1  0  0  0  0
 13 12  1  0  0  0  0
 14 15  1  0  0  0  0
 14  5  1  0  0  0  0
 16 17  1  0  0  0  0
 18 16  1  0  0  0  0
 19 21  1  0  0  0  0
 19  4  1  0  0  0  0
 19 16  1  0  0  0  0
 20 19  1  0  0  0  0
 22  2  1  0  0  0  0
 22 23  1  0  0  0  0
 22 24  1  0  0  0  0
 25 27  1  0  0  0  0
 25 22  1  0  0  0  0
 26 25  1  0  0  0  0
 28 25  1  0  0  0  0
 29 30  1  0  0  0  0
 29 31  1  0  0  0  0
 32 34  1  0  0  0  0
 32 29  1  0  0  0  0
 33 32  1  0  0  0  0
 35 32  1  0  0  0  0
M  CHG  1   3  -1
M  END
