1,2,3
 OpenBabel05122313063D

 28 28  0  0  1  0  0  0  0  0999 V2000
   -1.0282    1.3067    0.1315 N   0  0  0  0  0  2  0  0  0  0  0  0
    0.6572   -0.8469   -0.0059 O   0  5  0  0  0  0  0  0  0  0  0  0
   -3.0670   -0.1956   -0.2738 O   0  0  0  0  0  1  0  0  0  0  0  0
    5.3429    0.0760   -0.1909 O   0  0  0  0  0  0  0  0  0  0  0  0
    1.4007    1.4504    0.0356 C   0  0  0  0  0  0  0  0  0  0  0  0
    1.6361    0.0356   -0.0351 C   0  0  0  0  0  0  0  0  0  0  0  0
    2.9664   -0.4441   -0.1000 C   0  0  0  0  0  0  0  0  0  0  0  0
    3.0996   -1.5313   -0.1524 H   0  0  0  0  0  0  0  0  0  0  0  0
    4.0460    0.4524   -0.1138 C   0  0  0  0  0  0  0  0  0  0  0  0
    3.8205    1.8557   -0.0441 C   0  0  0  0  0  0  0  0  0  0  0  0
    4.6883    2.5286   -0.0543 H   0  0  0  0  0  0  0  0  0  0  0  0
    2.5216    2.3271    0.0345 C   0  0  0  0  0  0  0  0  0  0  0  0
    2.3382    3.4117    0.0950 H   0  0  0  0  0  0  0  0  0  0  0  0
    0.0790    1.9919    0.1743 C   0  0  0  0  0  3  0  0  0  0  0  0
    0.0172    3.0883    0.3510 H   0  0  0  0  0  0  0  0  0  0  0  0
   -2.3135    1.9424    0.3708 C   0  0  0  0  0  0  0  0  0  0  0  0
   -2.2934    3.0310    0.1419 H   0  0  0  0  0  0  0  0  0  0  0  0
   -2.5799    1.8118    1.4441 H   0  0  0  0  0  0  0  0  0  0  0  0
   -3.3461    1.1770   -0.4705 C   0  0  2  0  0  0  0  0  0  0  0  0
   -3.1770    1.4290   -1.5476 H   0  0  0  0  0  0  0  0  0  0  0  0
   -4.7882    1.4787   -0.0896 C   0  0  0  0  0  0  0  0  0  0  0  0
   -5.4760    0.8679   -0.7048 H   0  0  0  0  0  0  0  0  0  0  0  0
   -5.0272    2.5487   -0.2554 H   0  0  0  0  0  0  0  0  0  0  0  0
   -4.9654    1.2323    0.9767 H   0  0  0  0  0  0  0  0  0  0  0  0
    5.6472   -1.3081   -0.2697 C   0  0  0  0  0  0  0  0  0  0  0  0
    5.2929   -1.8573    0.6302 H   0  0  0  0  0  0  0  0  0  0  0  0
    6.7484   -1.3811   -0.3294 H   0  0  0  0  0  0  0  0  0  0  0  0
    5.1996   -1.7747   -1.1742 H   0  0  0  0  0  0  0  0  0  0  0  0
  1 14  1  0  0  0  0
  1 16  1  0  0  0  0
  4  9  1  0  0  0  0
  5 14  1  0  0  0  0
  6  2  1  0  0  0  0
  6  5  2  0  0  0  0
  7  6  1  0  0  0  0
  8  7  1  0  0  0  0
  9  7  2  0  0  0  0
  9 10  1  0  0  0  0
 10 12  2  0  0  0  0
 11 10  1  0  0  0  0
 12  5  1  0  0  0  0
 12 13  1  0  0  0  0
 14 15  1  0  0  0  0
 16 18  1  0  0  0  0
 17 16  1  0  0  0  0
 19 20  1  6  0  0  0
 19  3  1  0  0  0  0
 19 21  1  0  0  0  0
 19 16  1  0  0  0  0
 21 24  1  0  0  0  0
 22 21  1  0  0  0  0
 23 21  1  0  0  0  0
 25  4  1  0  0  0  0
 25 26  1  0  0  0  0
 27 25  1  0  0  0  0
 28 25  1  0  0  0  0
M  CHG  1   2  -1
M  END
