3,4,5
 OpenBabel05122313063D

 21 21  0  0  0  0  0  0  0  0999 V2000
   -2.0180    2.9198   -0.2156 Cl  0  0  0  0  0  0  0  0  0  0  0  0
   -5.3666   -1.3626   -0.0685 Cl  0  0  0  0  0  0  0  0  0  0  0  0
    1.0232   -1.6318    0.2319 N   0  0  0  0  0  2  0  0  0  0  0  0
    0.0760    0.9144   -0.0941 O   0  5  0  0  0  0  0  0  0  0  0  0
    3.4442   -0.8017   -0.1361 O   0  0  0  0  0  1  0  0  0  0  0  0
   -1.1117    0.3638   -0.0821 C   0  0  0  0  0  0  0  0  0  0  0  0
   -2.2664    1.2047   -0.1433 C   0  0  0  0  0  0  0  0  0  0  0  0
   -3.5586    0.6785   -0.1457 C   0  0  0  0  0  0  0  0  0  0  0  0
   -3.7467   -0.7177   -0.0598 C   0  0  0  0  0  0  0  0  0  0  0  0
   -2.6515   -1.5711    0.0428 C   0  0  0  0  0  0  0  0  0  0  0  0
   -1.3333   -1.0475    0.0363 C   0  0  0  0  0  0  0  0  0  0  0  0
   -0.2309   -1.9611    0.2427 C   0  0  0  0  0  3  0  0  0  0  0  0
    2.0627   -2.6013    0.5450 C   0  0  0  0  0  0  0  0  0  0  0  0
    3.2884   -2.1914   -0.2779 C   0  0  0  0  0  0  0  0  0  0  0  0
   -4.4225    1.3531   -0.2120 H   0  0  0  0  0  0  0  0  0  0  0  0
   -2.8069   -2.6558    0.1336 H   0  0  0  0  0  0  0  0  0  0  0  0
   -0.5098   -3.0159    0.4574 H   0  0  0  0  0  0  0  0  0  0  0  0
    2.3116   -2.4988    1.6244 H   0  0  0  0  0  0  0  0  0  0  0  0
    1.7392   -3.6485    0.3547 H   0  0  0  0  0  0  0  0  0  0  0  0
    3.1339   -2.4578   -1.3515 H   0  0  0  0  0  0  0  0  0  0  0  0
    4.2018   -2.7104    0.0853 H   0  0  0  0  0  0  0  0  0  0  0  0
  1  7  1  0  0  0  0
  2  9  1  0  0  0  0
  3 12  1  0  0  0  0
  3 13  1  0  0  0  0
  4  6  1  0  0  0  0
  6 11  1  0  0  0  0
  7  6  2  0  0  0  0
  8  7  1  0  0  0  0
  8  9  2  0  0  0  0
  9 10  1  0  0  0  0
 10 16  1  0  0  0  0
 11 10  2  0  0  0  0
 11 12  1  0  0  0  0
 12 17  1  0  0  0  0
 13 18  1  0  0  0  0
 14  5  1  0  0  0  0
 14 21  1  0  0  0  0
 14 13  1  0  0  0  0
 15  8  1  0  0  0  0
 19 13  1  0  0  0  0
 20 14  1  0  0  0  0
M  CHG  1   4  -1
M  END
