2,3,21
 OpenBabel05122313063D

 31 33  0  0  0  0  0  0  0  0999 V2000
   -1.9168    5.4597   -0.0833 Cl  0  0  0  0  0  0  0  0  0  0  0  0
   -2.5342   -0.3848   -0.2392 O   0  5  0  0  0  0  0  0  0  0  0  0
    0.6012   -1.9293   -0.6887 O   0  5  0  0  0  0  0  0  0  0  0  0
   -0.9745    2.9050   -0.1081 C   0  0  0  0  0  0  0  0  0  0  0  0
    0.0218    3.3676   -0.0899 H   0  0  0  0  0  0  0  0  0  0  0  0
   -1.1463    1.5063   -0.1172 C   0  0  0  0  0  0  0  0  0  0  0  0
   -2.4531    0.9382   -0.1646 C   0  0  0  0  0  0  0  0  0  0  0  0
   -3.4097    3.1718   -0.1385 C   0  0  0  0  0  0  0  0  0  0  0  0
   -4.2781    3.8452   -0.1431 H   0  0  0  0  0  0  0  0  0  0  0  0
    6.3285    0.8129    0.3803 C   0  0  0  0  0  0  0  0  0  0  0  0
    7.3902    1.0698    0.5094 H   0  0  0  0  0  0  0  0  0  0  0  0
   -3.5827    1.7847   -0.1618 C   0  0  0  0  0  0  0  0  0  0  0  0
   -4.5852    1.3352   -0.1892 H   0  0  0  0  0  0  0  0  0  0  0  0
    5.3264    1.7762    0.6465 C   0  0  0  0  0  0  0  0  0  0  0  0
    5.6115    2.7824    0.9891 H   0  0  0  0  0  0  0  0  0  0  0  0
    5.9575   -0.4583   -0.0363 C   0  0  0  0  0  0  0  0  0  0  0  0
    6.7210   -1.2252   -0.2399 H   0  0  0  0  0  0  0  0  0  0  0  0
    4.2085   -2.1191   -0.6235 C   0  0  0  0  0  0  0  0  0  0  0  0
    5.0027   -2.8566   -0.8190 H   0  0  0  0  0  0  0  0  0  0  0  0
   -2.1099    3.7223   -0.1131 C   0  0  0  0  0  0  0  0  0  0  0  0
   -0.1586    0.5199   -0.0952 N   0  0  0  0  0  2  0  0  0  0  0  0
    1.1287    0.7819   -0.0427 C   0  0  0  0  0  3  0  0  0  0  0  0
    1.4381    1.8397    0.0398 H   0  0  0  0  0  0  0  0  0  0  0  0
    3.5646    0.1755    0.0492 C   0  0  0  0  0  0  0  0  0  0  0  0
    2.1697   -0.1950   -0.1342 C   0  0  0  0  0  0  0  0  0  0  0  0
    4.5884   -0.8040   -0.2067 C   0  0  0  0  0  0  0  0  0  0  0  0
    1.8455   -1.5309   -0.5151 C   0  0  0  0  0  0  0  0  0  0  0  0
    3.9799    1.4634    0.4880 C   0  0  0  0  0  0  0  0  0  0  0  0
    3.2324    2.2328    0.7270 H   0  0  0  0  0  0  0  0  0  0  0  0
    2.8861   -2.4768   -0.7722 C   0  0  0  0  0  0  0  0  0  0  0  0
    2.5858   -3.4865   -1.0852 H   0  0  0  0  0  0  0  0  0  0  0  0
  2  7  1  0  0  0  0
  3 27  1  0  0  0  0
  4  5  1  0  0  0  0
  6  4  2  0  0  0  0
  6 21  1  0  0  0  0
  7 12  2  0  0  0  0
  7  6  1  0  0  0  0
  8 20  2  0  0  0  0
  9  8  1  0  0  0  0
 10 11  1  0  0  0  0
 10 14  1  0  0  0  0
 12  8  1  0  0  0  0
 13 12  1  0  0  0  0
 14 15  1  0  0  0  0
 16 10  2  0  0  0  0
 17 16  1  0  0  0  0
 18 26  1  0  0  0  0
 19 18  1  0  0  0  0
 20  4  1  0  0  0  0
 20  1  1  0  0  0  0
 21 22  1  0  0  0  0
 22 23  1  0  0  0  0
 24 28  1  0  0  0  0
 25 22  1  0  0  0  0
 25 24  1  0  0  0  0
 26 16  1  0  0  0  0
 26 24  2  0  0  0  0
 27 25  2  0  0  0  0
 28 14  2  0  0  0  0
 28 29  1  0  0  0  0
 30 18  2  0  0  0  0
 30 27  1  0  0  0  0
 31 30  1  0  0  0  0
M  CHG  2   2  -1   3  -1
M  END
