1,2,3
 OpenBabel05122313063D

 43 44  0  0  1  0  0  0  0  0999 V2000
   -1.5504   -0.9593    0.3568 O   0  0  0  0  0  1  0  0  0  0  0  0
   -0.0098    0.6847   -1.0999 N   0  0  0  0  0  0  0  0  0  0  0  0
    1.5301   -1.1876    0.0329 O   0  0  0  0  0  1  0  0  0  0  0  0
    0.2907    2.2474   -3.0378 C   0  0  0  0  0  0  0  0  0  0  0  0
   -0.5945    2.8919   -2.8856 H   0  0  0  0  0  0  0  0  0  0  0  0
    0.1765    0.8232   -2.5644 C   0  0  0  0  0  0  0  0  0  0  0  0
   -0.6789    0.3043   -3.0430 H   0  0  0  0  0  0  0  0  0  0  0  0
    1.0770    0.2461   -2.8534 H   0  0  0  0  0  0  0  0  0  0  0  0
    3.3531    0.2985    0.6024 C   0  0  0  0  0  0  0  0  0  0  0  0
   -5.5744    0.1543    0.7426 C   0  0  0  0  0  0  0  0  0  0  0  0
   -6.3649   -0.5337    0.4054 H   0  0  0  0  0  0  0  0  0  0  0  0
    1.3863    2.7675   -3.6183 C   0  0  0  0  0  0  0  0  0  0  0  0
    2.2863    2.1526   -3.7918 H   0  0  0  0  0  0  0  0  0  0  0  0
    1.4238    3.8150   -3.9563 H   0  0  0  0  0  0  0  0  0  0  0  0
    4.3608    1.1989    0.2065 C   0  0  0  0  0  0  0  0  0  0  0  0
    4.3393    1.6303   -0.8079 H   0  0  0  0  0  0  0  0  0  0  0  0
   -3.5553    1.8889    1.6180 C   0  0  0  0  0  0  0  0  0  0  0  0
   -2.7609    2.5637    1.9770 H   0  0  0  0  0  0  0  0  0  0  0  0
   -3.2103    0.7090    0.9321 C   0  0  0  0  0  0  0  0  0  0  0  0
   -1.7564    0.4025    0.6153 C   0  0  2  0  0  0  0  0  0  0  0  0
   -1.1410    0.7131    1.4970 H   0  0  0  0  0  0  0  0  0  0  0  0
    1.1604    1.1237   -0.3344 C   0  0  0  0  0  0  0  0  0  0  0  0
    0.8605    1.2981    0.7181 H   0  0  0  0  0  0  0  0  0  0  0  0
    1.5935    2.0710   -0.7281 H   0  0  0  0  0  0  0  0  0  0  0  0
   -1.2992    1.1989   -0.6240 C   0  0  0  0  0  0  0  0  0  0  0  0
   -2.0459    1.0269   -1.4250 H   0  0  0  0  0  0  0  0  0  0  0  0
   -1.2830    2.2918   -0.4061 H   0  0  0  0  0  0  0  0  0  0  0  0
    4.4345    0.0786    2.7737 C   0  0  0  0  0  0  0  0  0  0  0  0
    4.4651   -0.3699    3.7787 H   0  0  0  0  0  0  0  0  0  0  0  0
    5.3937    1.5430    1.0906 C   0  0  0  0  0  0  0  0  0  0  0  0
    6.1777    2.2462    0.7703 H   0  0  0  0  0  0  0  0  0  0  0  0
    3.3972   -0.2610    1.8917 C   0  0  0  0  0  0  0  0  0  0  0  0
    2.6139   -0.9761    2.1822 H   0  0  0  0  0  0  0  0  0  0  0  0
   -5.9148    1.3369    1.4188 C   0  0  0  0  0  0  0  0  0  0  0  0
   -6.9709    1.5798    1.6119 H   0  0  0  0  0  0  0  0  0  0  0  0
    5.4327    0.9829    2.3780 C   0  0  0  0  0  0  0  0  0  0  0  0
    6.2464    1.2472    3.0705 H   0  0  0  0  0  0  0  0  0  0  0  0
   -4.2287   -0.1581    0.4978 C   0  0  0  0  0  0  0  0  0  0  0  0
   -3.9425   -1.0856   -0.0192 H   0  0  0  0  0  0  0  0  0  0  0  0
   -4.9011    2.2044    1.8570 C   0  0  0  0  0  0  0  0  0  0  0  0
   -5.1600    3.1283    2.3966 H   0  0  0  0  0  0  0  0  0  0  0  0
    2.2028   -0.0157   -0.3370 C   0  0  2  0  0  0  0  0  0  0  0  0
    2.6175   -0.1241   -1.3693 H   0  0  0  0  0  0  0  0  0  0  0  0
  1 20  1  0  0  0  0
  2 25  1  0  0  0  0
  2 22  1  0  0  0  0
  4  5  1  0  0  0  0
  4  6  1  0  0  0  0
  6  2  1  0  0  0  0
  7  6  1  0  0  0  0
  8  6  1  0  0  0  0
  9 32  1  0  0  0  0
 10 34  1  0  0  0  0
 11 10  1  0  0  0  0
 12  4  2  0  0  0  0
 13 12  1  0  0  0  0
 14 12  1  0  0  0  0
 15  9  2  0  0  0  0
 15 30  1  0  0  0  0
 16 15  1  0  0  0  0
 17 40  1  0  0  0  0
 17 18  1  0  0  0  0
 19 17  2  0  0  0  0
 20 19  1  0  0  0  0
 20 21  1  1  0  0  0
 22 23  1  0  0  0  0
 24 22  1  0  0  0  0
 25 27  1  0  0  0  0
 25 20  1  0  0  0  0
 26 25  1  0  0  0  0
 28 29  1  0  0  0  0
 30 36  2  0  0  0  0
 31 30  1  0  0  0  0
 32 33  1  0  0  0  0
 32 28  2  0  0  0  0
 34 35  1  0  0  0  0
 34 40  2  0  0  0  0
 36 28  1  0  0  0  0
 36 37  1  0  0  0  0
 38 10  2  0  0  0  0
 38 19  1  0  0  0  0
 39 38  1  0  0  0  0
 40 41  1  0  0  0  0
 42 43  1  6  0  0  0
 42 22  1  0  0  0  0
 42  3  1  0  0  0  0
 42  9  1  0  0  0  0
M  END
