1,4,23
 OpenBabel05122313063D

 23 24  0  0  1  0  0  0  0  0999 V2000
    2.0206    0.0002    0.0003 N   0  0  0  0  0  2  0  0  0  0  0  0
    1.5799    1.9842   -1.0213 N   0  0  0  0  0  0  0  0  0  0  0  0
    1.5800   -1.9839    1.0215 N   0  0  0  0  0  0  0  0  0  0  0  0
    0.3126   -1.6218    0.9107 O   0  0  0  0  0  1  0  0  0  0  0  0
    3.9139    1.5570   -0.6272 C   0  0  0  0  0  0  0  0  0  0  0  0
    4.7092    0.9285   -0.2133 H   0  0  0  0  0  0  0  0  0  0  0  0
    2.5713    1.1240   -0.5240 C   0  0  1  0  0  3  0  0  0  0  0  0
    2.5714   -1.1237    0.5243 C   0  0  1  0  0  3  0  0  0  0  0  0
    1.8804   -3.1747    1.6117 C   0  0  0  0  0  0  0  0  0  0  0  0
    0.9988   -3.7318    1.9545 H   0  0  0  0  0  0  0  0  0  0  0  0
    4.2282    2.7782   -1.2242 C   0  0  0  0  0  0  0  0  0  0  0  0
    5.2777    3.0982   -1.2903 H   0  0  0  0  0  0  0  0  0  0  0  0
    1.8803    3.1749   -1.6117 C   0  0  0  0  0  0  0  0  0  0  0  0
    0.9986    3.7319   -1.9546 H   0  0  0  0  0  0  0  0  0  0  0  0
    3.1971   -3.5965    1.7309 C   0  0  0  0  0  0  0  0  0  0  0  0
    3.4066   -4.5621    2.2094 H   0  0  0  0  0  0  0  0  0  0  0  0
    3.9140   -1.5567    0.6274 C   0  0  0  0  0  0  0  0  0  0  0  0
    4.7092   -0.9280    0.2136 H   0  0  0  0  0  0  0  0  0  0  0  0
    4.2283   -2.7780    1.2241 C   0  0  0  0  0  0  0  0  0  0  0  0
    5.2778   -3.0979    1.2901 H   0  0  0  0  0  0  0  0  0  0  0  0
    3.1970    3.5967   -1.7311 C   0  0  0  0  0  0  0  0  0  0  0  0
    3.4065    4.5622   -2.2098 H   0  0  0  0  0  0  0  0  0  0  0  0
    0.3126    1.6221   -0.9103 O   0  0  0  0  0  1  0  0  0  0  0  0
  2 23  1  0  0  0  0
  2  7  1  0  0  0  0
  3  9  1  0  0  0  0
  4  3  1  0  0  0  0
  5  7  1  0  0  0  0
  5  6  1  0  0  0  0
  7  1  1  1  0  0  0
  8  1  1  6  0  0  0
  8 17  1  0  0  0  0
  8  3  1  0  0  0  0
  9 15  2  0  0  0  0
  9 10  1  0  0  0  0
 11  5  2  0  0  0  0
 12 11  1  0  0  0  0
 13  2  1  0  0  0  0
 14 13  1  0  0  0  0
 15 16  1  0  0  0  0
 17 19  2  0  0  0  0
 18 17  1  0  0  0  0
 19 20  1  0  0  0  0
 19 15  1  0  0  0  0
 21 13  2  0  0  0  0
 21 11  1  0  0  0  0
 22 21  1  0  0  0  0
M  END
