1,2,3
 OpenBabel05122313063D

 33 33  0  0  0  0  0  0  0  0999 V2000
   -2.1948   -0.9680   -0.5029 O   0  5  0  0  0  0  0  0  0  0  0  0
    0.4997    1.4413   -1.2521 O   0  5  0  0  0  0  0  0  0  0  0  0
   -1.6106    1.5687    0.0034 N   0  0  0  0  0  2  0  0  0  0  0  0
   -0.7769    2.6322    0.2323 N   0  0  0  0  0  0  0  0  0  0  0  0
   -3.3958   -0.7584    0.0027 C   0  0  0  0  0  0  0  0  0  0  0  0
   -4.3415   -1.8099    0.0491 C   0  0  0  0  0  0  0  0  0  0  0  0
   -4.0520   -2.7834   -0.3711 H   0  0  0  0  0  0  0  0  0  0  0  0
   -5.6033   -1.5984    0.6110 C   0  0  0  0  0  0  0  0  0  0  0  0
   -6.3292   -2.4259    0.6294 H   0  0  0  0  0  0  0  0  0  0  0  0
   -5.9570   -0.3440    1.1529 C   0  0  0  0  0  0  0  0  0  0  0  0
   -6.9529   -0.1898    1.5922 H   0  0  0  0  0  0  0  0  0  0  0  0
   -5.0292    0.6963    1.1282 C   0  0  0  0  0  0  0  0  0  0  0  0
   -5.2839    1.6803    1.5524 H   0  0  0  0  0  0  0  0  0  0  0  0
   -3.7446    0.5192    0.5532 C   0  0  0  0  0  0  0  0  0  0  0  0
   -2.7820    1.5860    0.5958 C   0  0  0  0  0  3  0  0  0  0  0  0
   -3.0152    2.4932    1.1841 H   0  0  0  0  0  0  0  0  0  0  0  0
    0.3245    2.4790   -0.4789 C   0  0  0  0  0  0  0  0  0  0  0  0
    1.4382    3.4784   -0.3500 C   0  0  0  0  0  0  0  0  0  0  0  0
    1.0156    4.3897    0.1136 H   0  0  0  0  0  0  0  0  0  0  0  0
    1.7994    3.7374   -1.3675 H   0  0  0  0  0  0  0  0  0  0  0  0
    2.6118    2.9427    0.4991 C   0  0  0  0  0  0  0  0  0  0  0  0
    3.2714    3.8002    0.7557 H   0  0  0  0  0  0  0  0  0  0  0  0
    2.2086    2.5702    1.4669 H   0  0  0  0  0  0  0  0  0  0  0  0
    3.4428    1.8462   -0.1725 C   0  0  0  0  0  0  0  0  0  0  0  0
    2.7747    1.0259   -0.5089 H   0  0  0  0  0  0  0  0  0  0  0  0
    3.8997    2.2545   -1.1023 H   0  0  0  0  0  0  0  0  0  0  0  0
    4.5402    1.2750    0.7291 C   0  0  0  0  0  0  0  0  0  0  0  0
    4.0673    0.8312    1.6338 H   0  0  0  0  0  0  0  0  0  0  0  0
    5.1834    2.1038    1.1021 H   0  0  0  0  0  0  0  0  0  0  0  0
    5.4036    0.2228    0.0325 C   0  0  0  0  0  0  0  0  0  0  0  0
    6.1760   -0.1928    0.7113 H   0  0  0  0  0  0  0  0  0  0  0  0
    5.9277    0.6512   -0.8474 H   0  0  0  0  0  0  0  0  0  0  0  0
    4.7858   -0.6240   -0.3308 H   0  0  0  0  0  0  0  0  0  0  0  0
  1  5  1  0  0  0  0
  2 17  1  0  0  0  0
  3  4  1  0  0  0  0
  3 15  1  0  0  0  0
  5  6  2  0  0  0  0
  5 14  1  0  0  0  0
  6  8  1  0  0  0  0
  7  6  1  0  0  0  0
  8  9  1  0  0  0  0
  8 10  2  0  0  0  0
 10 11  1  0  0  0  0
 12 10  1  0  0  0  0
 12 13  1  0  0  0  0
 14 15  1  0  0  0  0
 14 12  2  0  0  0  0
 15 16  1  0  0  0  0
 17 18  1  0  0  0  0
 17  4  2  0  0  0  0
 18 19  1  0  0  0  0
 18 21  1  0  0  0  0
 20 18  1  0  0  0  0
 21 22  1  0  0  0  0
 21 23  1  0  0  0  0
 24 21  1  0  0  0  0
 24 27  1  0  0  0  0
 25 24  1  0  0  0  0
 26 24  1  0  0  0  0
 27 29  1  0  0  0  0
 27 28  1  0  0  0  0
 30 31  1  0  0  0  0
 30 27  1  0  0  0  0
 32 30  1  0  0  0  0
 33 30  1  0  0  0  0
M  CHG  2   1  -1   2  -1
M  END
