4,5,6
 OpenBabel05122313063D

 35 36  0  0  1  0  0  0  0  0999 V2000
    4.1541   -2.1766   -0.1243 F   0  0  0  0  0  0  0  0  0  0  0  0
    4.7355   -0.2751   -1.0082 F   0  0  0  0  0  0  0  0  0  0  0  0
    4.6407   -0.4905    1.1645 F   0  0  0  0  0  0  0  0  0  0  0  0
    1.7605   -1.4537   -0.0129 O   0  0  0  0  0  1  0  0  0  0  0  0
   -1.8777   -1.3977    0.0029 O   0  5  0  0  0  0  0  0  0  0  0  0
   -0.1963    0.4218   -0.0342 N   0  0  0  0  0  2  0  0  0  0  0  0
   -1.4897    0.8723   -0.0221 N   0  0  0  0  0  0  0  0  0  0  0  0
    2.5502   -0.4189   -0.0161 C   0  0  1  0  0  3  0  0  0  0  0  0
    2.1821    0.9321   -0.0230 C   0  0  0  0  0  0  0  0  0  0  0  0
    0.7987    1.3211   -0.0532 C   0  0  0  0  0  0  0  0  0  0  0  0
    0.3811    2.7780   -0.0613 C   0  0  0  0  0  0  0  0  0  0  0  0
   -0.4532    2.8879   -0.7823 H   0  0  0  0  0  0  0  0  0  0  0  0
   -0.0907    2.9832    0.9263 H   0  0  0  0  0  0  0  0  0  0  0  0
    1.5105    3.7697   -0.3316 C   0  0  0  0  0  0  0  0  0  0  0  0
    1.7513    3.7834   -1.4176 H   0  0  0  0  0  0  0  0  0  0  0  0
    1.1709    4.7934   -0.0724 H   0  0  0  0  0  0  0  0  0  0  0  0
    2.7604    3.3766    0.4490 C   0  0  0  0  0  0  0  0  0  0  0  0
    3.5648    4.1307    0.3268 H   0  0  0  0  0  0  0  0  0  0  0  0
    2.5241    3.3331    1.5357 H   0  0  0  0  0  0  0  0  0  0  0  0
    3.2593    2.0145   -0.0333 C   0  0  0  0  0  0  0  0  0  0  0  0
    4.1184    1.6953    0.5853 H   0  0  0  0  0  0  0  0  0  0  0  0
    3.6570    2.1281   -1.0664 H   0  0  0  0  0  0  0  0  0  0  0  0
    4.0268   -0.8422    0.0006 C   0  0  0  0  0  0  0  0  0  0  0  0
   -2.3196   -0.1545   -0.0047 C   0  0  0  0  0  0  0  0  0  0  0  0
   -3.7794    0.0684    0.0089 C   0  0  0  0  0  0  0  0  0  0  0  0
   -4.3161    1.3757    0.0153 C   0  0  0  0  0  0  0  0  0  0  0  0
   -3.6222    2.2280    0.0114 H   0  0  0  0  0  0  0  0  0  0  0  0
   -5.7023    1.5675    0.0278 C   0  0  0  0  0  0  0  0  0  0  0  0
   -6.1117    2.5894    0.0328 H   0  0  0  0  0  0  0  0  0  0  0  0
   -6.5719    0.4624    0.0343 C   0  0  0  0  0  0  0  0  0  0  0  0
   -7.6617    0.6171    0.0441 H   0  0  0  0  0  0  0  0  0  0  0  0
   -6.0443   -0.8392    0.0287 C   0  0  0  0  0  0  0  0  0  0  0  0
   -6.7210   -1.7076    0.0341 H   0  0  0  0  0  0  0  0  0  0  0  0
   -4.6574   -1.0370    0.0163 C   0  0  0  0  0  0  0  0  0  0  0  0
   -4.2258   -2.0478    0.0119 H   0  0  0  0  0  0  0  0  0  0  0  0
  1 23  1  0  0  0  0
  2 23  1  0  0  0  0
  6  7  1  0  0  0  0
  7 24  2  0  0  0  0
  8  4  1  1  0  0  0
  8 23  1  0  0  0  0
  9  8  1  0  0  0  0
 10  6  1  0  0  0  0
 10  9  2  0  0  0  0
 11 10  1  0  0  0  0
 11 13  1  0  0  0  0
 12 11  1  0  0  0  0
 14 16  1  0  0  0  0
 14 11  1  0  0  0  0
 14 17  1  0  0  0  0
 15 14  1  0  0  0  0
 17 19  1  0  0  0  0
 18 17  1  0  0  0  0
 20  9  1  0  0  0  0
 20 17  1  0  0  0  0
 20 21  1  0  0  0  0
 22 20  1  0  0  0  0
 23  3  1  0  0  0  0
 24  5  1  0  0  0  0
 24 25  1  0  0  0  0
 25 26  2  0  0  0  0
 25 34  1  0  0  0  0
 26 28  1  0  0  0  0
 27 26  1  0  0  0  0
 28 29  1  0  0  0  0
 28 30  2  0  0  0  0
 30 31  1  0  0  0  0
 32 33  1  0  0  0  0
 32 30  1  0  0  0  0
 34 32  2  0  0  0  0
 35 34  1  0  0  0  0
M  CHG  1   5  -1
M  END
