1,2,3
 OpenBabel05122313063D

 37 39  0  0  0  0  0  0  0  0999 V2000
    3.8423   -0.4491    0.3553 O   0  5  0  0  0  0  0  0  0  0  0  0
    0.2387   -1.5046   -0.0758 O   0  5  0  0  0  0  0  0  0  0  0  0
    1.3826    0.7097    0.0001 N   0  0  0  0  0  2  0  0  0  0  0  0
    0.0239    0.8008    0.0389 N   0  0  0  0  0  0  0  0  0  0  0  0
   -2.8173    0.4097    0.0031 N   0  0  0  0  0  0  0  0  0  0  0  0
   -4.0370   -0.1667   -0.0290 N   0  0  0  0  0  0  0  0  0  0  0  0
   -6.3730    0.0929   -0.0187 N   0  0  0  0  0  0  0  0  0  0  0  0
    4.3418    0.7744    0.1392 C   0  0  0  0  0  0  0  0  0  0  0  0
    5.7433    0.9350    0.1217 C   0  0  0  0  0  0  0  0  0  0  0  0
    6.3652    0.0371    0.2455 H   0  0  0  0  0  0  0  0  0  0  0  0
    6.3096    2.2028   -0.0456 C   0  0  0  0  0  0  0  0  0  0  0  0
    7.4052    2.3070   -0.0588 H   0  0  0  0  0  0  0  0  0  0  0  0
    5.4920    3.3413   -0.1940 C   0  0  0  0  0  0  0  0  0  0  0  0
    5.9421    4.3359   -0.3236 H   0  0  0  0  0  0  0  0  0  0  0  0
    4.1057    3.1940   -0.1764 C   0  0  0  0  0  0  0  0  0  0  0  0
    3.4524    4.0729   -0.2926 H   0  0  0  0  0  0  0  0  0  0  0  0
    3.4984    1.9201   -0.0219 C   0  0  0  0  0  0  0  0  0  0  0  0
    2.0596    1.8326   -0.0054 C   0  0  0  0  0  3  0  0  0  0  0  0
    1.4702    2.7689   -0.0107 H   0  0  0  0  0  0  0  0  0  0  0  0
   -0.5019   -0.4047   -0.0276 C   0  0  0  0  0  0  0  0  0  0  0  0
   -1.9502   -0.6105   -0.0425 C   0  0  0  0  0  0  0  0  0  0  0  0
   -2.6248   -1.8647   -0.1061 C   0  0  0  0  0  0  0  0  0  0  0  0
   -2.1700   -2.8586   -0.1550 H   0  0  0  0  0  0  0  0  0  0  0  0
   -3.9791   -1.5620   -0.0972 C   0  0  0  0  0  0  0  0  0  0  0  0
   -5.1425   -2.4946   -0.1498 C   0  0  0  0  0  0  0  0  0  0  0  0
   -5.7958   -2.3895    0.7375 H   0  0  0  0  0  0  0  0  0  0  0  0
   -4.7628   -3.5327   -0.2024 H   0  0  0  0  0  0  0  0  0  0  0  0
   -5.7887   -2.2983   -1.0268 H   0  0  0  0  0  0  0  0  0  0  0  0
   -5.1761    0.6844    0.0074 C   0  0  0  0  0  0  0  0  0  0  0  0
   -4.9900    2.0834    0.0677 C   0  0  0  0  0  0  0  0  0  0  0  0
   -3.9718    2.4910    0.0859 H   0  0  0  0  0  0  0  0  0  0  0  0
   -6.1356    2.8814    0.1013 C   0  0  0  0  0  0  0  0  0  0  0  0
   -6.0386    3.9767    0.1483 H   0  0  0  0  0  0  0  0  0  0  0  0
   -7.4041    2.2755    0.0742 C   0  0  0  0  0  0  0  0  0  0  0  0
   -8.3267    2.8731    0.0990 H   0  0  0  0  0  0  0  0  0  0  0  0
   -7.4619    0.8768    0.0140 C   0  0  0  0  0  0  0  0  0  0  0  0
   -8.4351    0.3557   -0.0092 H   0  0  0  0  0  0  0  0  0  0  0  0
  2 20  1  0  0  0  0
  3  4  1  0  0  0  0
  6  5  1  0  0  0  0
  6 29  1  0  0  0  0
  7 29  2  0  0  0  0
  7 36  1  0  0  0  0
  8  1  1  0  0  0  0
  9  8  1  0  0  0  0
  9 10  1  0  0  0  0
 11  9  2  0  0  0  0
 12 11  1  0  0  0  0
 13 15  2  0  0  0  0
 13 11  1  0  0  0  0
 14 13  1  0  0  0  0
 15 17  1  0  0  0  0
 16 15  1  0  0  0  0
 17 18  1  0  0  0  0
 17  8  2  0  0  0  0
 18  3  1  0  0  0  0
 19 18  1  0  0  0  0
 20  4  2  0  0  0  0
 21 20  1  0  0  0  0
 21  5  2  0  0  0  0
 22 24  2  0  0  0  0
 22 21  1  0  0  0  0
 23 22  1  0  0  0  0
 24  6  1  0  0  0  0
 25 24  1  0  0  0  0
 25 26  1  0  0  0  0
 27 25  1  0  0  0  0
 28 25  1  0  0  0  0
 29 30  1  0  0  0  0
 30 31  1  0  0  0  0
 30 32  2  0  0  0  0
 32 33  1  0  0  0  0
 34 35  1  0  0  0  0
 34 32  1  0  0  0  0
 36 34  2  0  0  0  0
 37 36  1  0  0  0  0
M  CHG  2   1  -1   2  -1
M  END
