3,5,6
 OpenBabel05122313063D

 32 33  0  0  0  0  0  0  0  0999 V2000
   -3.8400   -2.4095    0.3170 Br  0  0  0  0  0  0  0  0  0  0  0  0
   -5.2694    3.1002   -0.1457 Br  0  0  0  0  0  0  0  0  0  0  0  0
    0.8060    0.6628   -0.0904 N   0  0  0  0  0  2  0  0  0  0  0  0
    2.0697    1.1393   -0.0171 N   0  0  0  0  0  0  0  0  0  0  0  0
   -1.0540   -1.2359    0.2186 O   0  5  0  0  0  0  0  0  0  0  0  0
    2.5674   -1.0721   -0.3912 O   0  5  0  0  0  0  0  0  0  0  0  0
    3.9752    2.8343    0.2704 O   0  0  0  0  0  0  0  0  0  0  0  0
    3.0358    2.4442    0.2070 H   0  0  0  0  0  0  0  0  0  0  0  0
   -1.5816    1.1040   -0.0118 C   0  0  0  0  0  0  0  0  0  0  0  0
   -1.9532   -0.2756    0.1007 C   0  0  0  0  0  0  0  0  0  0  0  0
   -3.3390   -0.5889    0.1425 C   0  0  0  0  0  0  0  0  0  0  0  0
   -4.3226    0.4027    0.0673 C   0  0  0  0  0  0  0  0  0  0  0  0
   -5.3848    0.1263    0.0959 H   0  0  0  0  0  0  0  0  0  0  0  0
   -3.9321    1.7514   -0.0435 C   0  0  0  0  0  0  0  0  0  0  0  0
   -2.5830    2.1045   -0.0744 C   0  0  0  0  0  0  0  0  0  0  0  0
   -2.2874    3.1603   -0.1533 H   0  0  0  0  0  0  0  0  0  0  0  0
   -0.1936    1.5025    0.0006 C   0  0  0  0  0  3  0  0  0  0  0  0
    0.0438    2.5792    0.0921 H   0  0  0  0  0  0  0  0  0  0  0  0
    2.9604    0.1568   -0.1960 C   0  0  0  0  0  0  0  0  0  0  0  0
    4.3847    0.4755   -0.1536 C   0  0  0  0  0  0  0  0  0  0  0  0
    4.8244    1.8182    0.0829 C   0  0  0  0  0  0  0  0  0  0  0  0
    6.2186    2.1064    0.1271 C   0  0  0  0  0  0  0  0  0  0  0  0
    7.1253    1.0576   -0.0653 C   0  0  0  0  0  0  0  0  0  0  0  0
    8.2030    1.2849   -0.0310 H   0  0  0  0  0  0  0  0  0  0  0  0
    6.7011   -0.2683   -0.3007 C   0  0  0  0  0  0  0  0  0  0  0  0
    7.4428   -1.0662   -0.4502 H   0  0  0  0  0  0  0  0  0  0  0  0
    5.3399   -0.5532   -0.3443 C   0  0  0  0  0  0  0  0  0  0  0  0
    4.9692   -1.5714   -0.5298 H   0  0  0  0  0  0  0  0  0  0  0  0
    6.6511    3.5241    0.3771 C   0  0  0  0  0  0  0  0  0  0  0  0
    6.2535    3.8979    1.3436 H   0  0  0  0  0  0  0  0  0  0  0  0
    6.2487    4.2065   -0.4003 H   0  0  0  0  0  0  0  0  0  0  0  0
    7.7539    3.6134    0.3896 H   0  0  0  0  0  0  0  0  0  0  0  0
  2 14  1  0  0  0  0
  3  4  1  0  0  0  0
  3 17  1  0  0  0  0
  6 19  1  0  0  0  0
  8  7  1  0  0  0  0
  9 17  1  0  0  0  0
  9 10  1  0  0  0  0
 10 11  2  0  0  0  0
 10  5  1  0  0  0  0
 11  1  1  0  0  0  0
 12 13  1  0  0  0  0
 12 11  1  0  0  0  0
 14 12  2  0  0  0  0
 15 14  1  0  0  0  0
 15  9  2  0  0  0  0
 16 15  1  0  0  0  0
 17 18  1  0  0  0  0
 19 20  1  0  0  0  0
 19  4  2  0  0  0  0
 20 21  1  0  0  0  0
 21 22  2  0  0  0  0
 21  7  1  0  0  0  0
 22 29  1  0  0  0  0
 23 24  1  0  0  0  0
 23 22  1  0  0  0  0
 25 23  2  0  0  0  0
 26 25  1  0  0  0  0
 27 25  1  0  0  0  0
 27 20  2  0  0  0  0
 28 27  1  0  0  0  0
 29 32  1  0  0  0  0
 29 30  1  0  0  0  0
 31 29  1  0  0  0  0
M  CHG  2   5  -1   6  -1
M  END
