2,5,6
 OpenBabel05122313063D

 21 21  0  0  0  0  0  0  0  0999 V2000
    2.1501   -2.0311    0.8608 S   0  0  0  0  0  0  0  0  0  0  0  0
   -1.3654    1.3276   -0.0529 O   0  5  0  0  0  0  0  0  0  0  0  0
    1.4739   -3.0927    0.0600 O   0  0  0  0  0  1  0  0  0  0  0  0
    3.3916   -2.3816    1.5858 O   0  0  0  0  0  1  0  0  0  0  0  0
    2.2827   -0.7110    0.0569 O   0  0  0  0  0  1  0  0  0  0  0  0
   -0.1279   -0.7579    1.5539 N   0  0  0  0  0  2  0  0  0  0  0  0
   -2.4652    0.8233    0.4107 C   0  0  0  0  0  0  0  0  0  0  0  0
   -2.5335   -0.3281    1.3043 C   0  0  0  0  0  0  0  0  0  0  0  0
   -3.8045   -0.8045    1.7377 C   0  0  0  0  0  0  0  0  0  0  0  0
   -3.8234   -1.6759    2.4137 H   0  0  0  0  0  0  0  0  0  0  0  0
   -4.9964   -0.2111    1.3419 C   0  0  0  0  0  0  0  0  0  0  0  0
   -5.9626   -0.6023    1.6910 H   0  0  0  0  0  0  0  0  0  0  0  0
   -4.9391    0.9164    0.4865 C   0  0  0  0  0  0  0  0  0  0  0  0
   -5.8734    1.4074    0.1694 H   0  0  0  0  0  0  0  0  0  0  0  0
   -3.7208    1.4159    0.0425 C   0  0  0  0  0  0  0  0  0  0  0  0
   -3.6721    2.2972   -0.6157 H   0  0  0  0  0  0  0  0  0  0  0  0
   -1.3789   -1.0101    1.8307 C   0  0  0  0  0  3  0  0  0  0  0  0
   -1.5969   -1.8188    2.5651 H   0  0  0  0  0  0  0  0  0  0  0  0
    0.9307   -1.5081    2.1657 C   0  0  0  0  0  0  0  0  0  0  0  0
    0.5980   -2.4234    2.7015 H   0  0  0  0  0  0  0  0  0  0  0  0
    1.5353   -0.8710    2.8452 H   0  0  0  0  0  0  0  0  0  0  0  0
  1  4  1  0  0  0  0
  1 19  1  0  0  0  0
  2  7  1  0  0  0  0
  3  1  1  0  0  0  0
  5  1  1  0  0  0  0
  6 17  1  0  0  0  0
  6 19  1  0  0  0  0
  7  8  1  0  0  0  0
  8  9  2  0  0  0  0
  8 17  1  0  0  0  0
  9 10  1  0  0  0  0
 11 12  1  0  0  0  0
 11  9  1  0  0  0  0
 13 11  2  0  0  0  0
 14 13  1  0  0  0  0
 15  7  2  0  0  0  0
 15 13  1  0  0  0  0
 16 15  1  0  0  0  0
 17 18  1  0  0  0  0
 19 20  1  0  0  0  0
 19 21  1  0  0  0  0
M  CHG  1   2  -1
M  END
