2,3,5
 OpenBabel05122313063D

 38 40  0  0  0  0  0  0  0  0999 V2000
   -6.0985    0.2687   -0.1054 Br  0  0  0  0  0  0  0  0  0  0  0  0
   -0.3575    2.1731    0.0959 O   0  5  0  0  0  0  0  0  0  0  0  0
    2.8007    0.3106   -0.0498 O   0  5  0  0  0  0  0  0  0  0  0  0
    1.3421   -1.4659    0.0137 N   0  0  0  0  0  0  0  0  0  0  0  0
    0.4392   -0.4366    0.0078 N   0  0  0  0  0  2  0  0  0  0  0  0
   -1.5739    1.6816    0.0748 C   0  0  0  0  0  0  0  0  0  0  0  0
   -2.6520    2.6151    0.0982 C   0  0  0  0  0  0  0  0  0  0  0  0
   -2.3903    3.6818    0.1525 H   0  0  0  0  0  0  0  0  0  0  0  0
   -3.9798    2.2098    0.0544 C   0  0  0  0  0  0  0  0  0  0  0  0
   -4.7922    2.9502    0.0714 H   0  0  0  0  0  0  0  0  0  0  0  0
   -4.2773    0.8301   -0.0195 C   0  0  0  0  0  0  0  0  0  0  0  0
   -3.2599   -0.1145   -0.0339 C   0  0  0  0  0  3  0  0  0  0  0  0
   -3.5092   -1.1811   -0.1012 H   0  0  0  0  0  0  0  0  0  0  0  0
   -1.8883    0.2743    0.0283 C   0  0  0  0  0  0  0  0  0  0  0  0
   -0.8587   -0.7429    0.0258 C   0  0  0  0  0  0  0  0  0  0  0  0
   -1.2411   -2.1880    0.0451 C   0  0  0  0  0  0  0  0  0  0  0  0
   -1.0062   -3.0078   -1.0770 C   0  0  0  0  0  0  0  0  0  0  0  0
   -0.5213   -2.5785   -1.9655 H   0  0  0  0  0  0  0  0  0  0  0  0
   -1.3827   -4.3568   -1.0568 C   0  0  0  0  0  0  0  0  0  0  0  0
   -1.2005   -4.9869   -1.9407 H   0  0  0  0  0  0  0  0  0  0  0  0
   -1.9863   -4.9058    0.0871 C   0  0  0  0  0  0  0  0  0  0  0  0
   -2.2786   -5.9668    0.1018 H   0  0  0  0  0  0  0  0  0  0  0  0
   -2.2159   -4.0967    1.2100 C   0  0  0  0  0  0  0  0  0  0  0  0
   -2.6860   -4.5201    2.1105 H   0  0  0  0  0  0  0  0  0  0  0  0
   -1.8489   -2.7425    1.1888 C   0  0  0  0  0  0  0  0  0  0  0  0
   -2.0305   -2.1045    2.0669 H   0  0  0  0  0  0  0  0  0  0  0  0
    2.5693   -0.9827   -0.0253 C   0  0  0  0  0  0  0  0  0  0  0  0
    3.7199   -1.9093   -0.0468 C   0  0  0  0  0  0  0  0  0  0  0  0
    5.0307   -1.4042   -0.1799 C   0  0  0  0  0  0  0  0  0  0  0  0
    5.1700   -0.3179   -0.2746 H   0  0  0  0  0  0  0  0  0  0  0  0
    6.1250   -2.2789   -0.2008 C   0  0  0  0  0  0  0  0  0  0  0  0
    7.1447   -1.8781   -0.3071 H   0  0  0  0  0  0  0  0  0  0  0  0
    5.9227   -3.6643   -0.0893 C   0  0  0  0  0  0  0  0  0  0  0  0
    6.7832   -4.3507   -0.1049 H   0  0  0  0  0  0  0  0  0  0  0  0
    4.6180   -4.1726    0.0407 C   0  0  0  0  0  0  0  0  0  0  0  0
    4.4565   -5.2579    0.1274 H   0  0  0  0  0  0  0  0  0  0  0  0
    3.5207   -3.3042    0.0609 C   0  0  0  0  0  0  0  0  0  0  0  0
    2.4928   -3.6812    0.1613 H   0  0  0  0  0  0  0  0  0  0  0  0
  1 11  1  0  0  0  0
  3 27  1  0  0  0  0
  5  4  1  0  0  0  0
  5 15  1  0  0  0  0
  6  2  1  0  0  0  0
  6  7  2  0  0  0  0
  7  8  1  0  0  0  0
  9 10  1  0  0  0  0
  9  7  1  0  0  0  0
 11  9  2  0  0  0  0
 12 11  1  0  0  0  0
 12 14  1  0  0  0  0
 13 12  1  0  0  0  0
 14  6  1  0  0  0  0
 15 14  2  0  0  0  0
 15 16  1  0  0  0  0
 16 25  1  0  0  0  0
 17 19  1  0  0  0  0
 17 16  2  0  0  0  0
 18 17  1  0  0  0  0
 19 21  2  0  0  0  0
 20 19  1  0  0  0  0
 21 22  1  0  0  0  0
 21 23  1  0  0  0  0
 23 24  1  0  0  0  0
 25 23  2  0  0  0  0
 25 26  1  0  0  0  0
 27  4  2  0  0  0  0
 28 27  1  0  0  0  0
 28 37  1  0  0  0  0
 29 28  2  0  0  0  0
 30 29  1  0  0  0  0
 31 29  1  0  0  0  0
 31 33  2  0  0  0  0
 32 31  1  0  0  0  0
 33 35  1  0  0  0  0
 34 33  1  0  0  0  0
 35 37  2  0  0  0  0
 35 36  1  0  0  0  0
 37 38  1  0  0  0  0
M  CHG  2   2  -1   3  -1
M  END
