1,2,3
 OpenBabel05122313063D

 24 24  0  0  0  0  0  0  0  0999 V2000
    1.5840    1.8139    0.5315 N   0  0  0  0  0  2  0  0  0  0  0  0
    1.0575   -0.1029   -1.2454 O   0  5  0  0  0  0  0  0  0  0  0  0
   -0.6749    2.7988    0.1244 O   0  0  0  0  0  1  0  0  0  0  0  0
    2.7149   -0.3437    0.4693 C   0  0  0  0  0  0  0  0  0  0  0  0
    1.9483   -0.8381   -0.6375 C   0  0  0  0  0  0  0  0  0  0  0  0
    2.1753   -2.1722   -1.1094 C   0  0  0  0  0  0  0  0  0  0  0  0
    3.1464   -2.9482   -0.4712 C   0  0  0  0  0  0  0  0  0  0  0  0
    3.3154   -3.9756   -0.8324 H   0  0  0  0  0  0  0  0  0  0  0  0
    3.9139   -2.4623    0.6148 C   0  0  0  0  0  0  0  0  0  0  0  0
    4.6711   -3.1058    1.0851 H   0  0  0  0  0  0  0  0  0  0  0  0
    3.6991   -1.1698    1.0760 C   0  0  0  0  0  0  0  0  0  0  0  0
    4.2834   -0.7681    1.9194 H   0  0  0  0  0  0  0  0  0  0  0  0
    1.3481   -2.6677   -2.2603 C   0  0  0  0  0  0  0  0  0  0  0  0
    1.6199   -3.7029   -2.5408 H   0  0  0  0  0  0  0  0  0  0  0  0
    1.4708   -2.0104   -3.1460 H   0  0  0  0  0  0  0  0  0  0  0  0
    0.2665   -2.6366   -2.0117 H   0  0  0  0  0  0  0  0  0  0  0  0
    2.4917    0.9850    0.9636 C   0  0  0  0  0  3  0  0  0  0  0  0
    3.1439    1.3164    1.8003 H   0  0  0  0  0  0  0  0  0  0  0  0
    1.3888    3.1066    1.1742 C   0  0  0  0  0  0  0  0  0  0  0  0
    1.7362    3.9041    0.4819 H   0  0  0  0  0  0  0  0  0  0  0  0
    1.9504    3.1909    2.1312 H   0  0  0  0  0  0  0  0  0  0  0  0
   -0.1336    3.2195    1.3344 C   0  0  0  0  0  0  0  0  0  0  0  0
   -0.4693    2.5773    2.1879 H   0  0  0  0  0  0  0  0  0  0  0  0
   -0.4365    4.2685    1.5580 H   0  0  0  0  0  0  0  0  0  0  0  0
  1 17  1  0  0  0  0
  1 19  1  0  0  0  0
  2  5  1  0  0  0  0
  3 22  1  0  0  0  0
  4 17  1  0  0  0  0
  4 11  1  0  0  0  0
  5  4  2  0  0  0  0
  6  5  1  0  0  0  0
  6  7  2  0  0  0  0
  7  9  1  0  0  0  0
  8  7  1  0  0  0  0
  9 11  2  0  0  0  0
  9 10  1  0  0  0  0
 11 12  1  0  0  0  0
 13 16  1  0  0  0  0
 13  6  1  0  0  0  0
 14 13  1  0  0  0  0
 15 13  1  0  0  0  0
 17 18  1  0  0  0  0
 19 22  1  0  0  0  0
 19 21  1  0  0  0  0
 20 19  1  0  0  0  0
 22 24  1  0  0  0  0
 22 23  1  0  0  0  0
M  CHG  1   2  -1
M  END
