7,10,14
 OpenBabel05122313063D

 43 45  0  0  0  0  0  0  0  0999 V2000
    5.4740   -1.2147    0.9346 S   0  0  0  0  0  0  0  0  0  0  0  0
   -1.8714    0.1458   -1.7134 O   0  0  0  0  0  0  0  0  0  0  0  0
   -0.9358   -1.9066   -1.2571 N   0  0  0  0  0  0  0  0  0  0  0  0
   -1.1693   -2.8281   -0.8727 H   0  0  0  0  0  0  0  0  0  0  0  0
    8.5806    1.7547   -0.4654 C   0  0  0  0  0  0  0  0  0  0  0  0
    9.2990    2.4979   -0.8425 H   0  0  0  0  0  0  0  0  0  0  0  0
   -4.0916   -1.5141   -0.2119 N   0  0  0  0  0  0  0  0  0  0  0  0
    7.2871    1.7149   -0.9921 C   0  0  0  0  0  0  0  0  0  0  0  0
    6.9587    2.4085   -1.7792 H   0  0  0  0  0  0  0  0  0  0  0  0
   -2.0190   -1.0614    1.5182 O   0  5  0  0  0  0  0  0  0  0  0  0
    6.3728    0.7568   -0.5014 C   0  0  0  0  0  0  0  0  0  0  0  0
   -1.5577   -3.2700    1.4913 O   0  0  0  0  0  0  0  0  0  0  0  0
    6.7956   -0.1498    0.5242 C   0  0  0  0  0  0  0  0  0  0  0  0
   -4.7517    1.1397   -0.0143 O   0  5  0  0  0  0  0  0  0  0  0  0
    8.0961   -0.1078    1.0522 C   0  0  0  0  0  0  0  0  0  0  0  0
    8.4125   -0.8073    1.8393 H   0  0  0  0  0  0  0  0  0  0  0  0
   -6.6202    0.8333   -1.2226 O   0  0  0  0  0  0  0  0  0  0  0  0
    8.9817    0.8529    0.5465 C   0  0  0  0  0  0  0  0  0  0  0  0
   10.0059    0.9037    0.9455 H   0  0  0  0  0  0  0  0  0  0  0  0
    5.0718    0.5987   -0.9215 N   0  0  0  0  0  0  0  0  0  0  0  0
    4.4668   -0.3722   -0.2840 C   0  0  0  0  0  0  0  0  0  0  0  0
    3.0779   -0.7755   -0.5153 C   0  0  0  0  0  0  0  0  0  0  0  0
    2.3212   -0.0987   -1.5001 C   0  0  0  0  0  0  0  0  0  0  0  0
    2.8090    0.7098   -2.0627 H   0  0  0  0  0  0  0  0  0  0  0  0
    0.9953   -0.4503   -1.7559 C   0  0  0  0  0  0  0  0  0  0  0  0
    0.4144    0.0834   -2.5174 H   0  0  0  0  0  0  0  0  0  0  0  0
    0.3985   -1.4982   -1.0235 C   0  0  0  0  0  0  0  0  0  0  0  0
    1.1349   -2.1742   -0.0285 C   0  0  0  0  0  0  0  0  0  0  0  0
    0.6327   -2.9372    0.5865 H   0  0  0  0  0  0  0  0  0  0  0  0
    2.4609   -1.8150    0.2160 C   0  0  0  0  0  0  0  0  0  0  0  0
    3.0197   -2.3421    1.0049 H   0  0  0  0  0  0  0  0  0  0  0  0
   -1.9859   -1.0650   -1.5047 C   0  0  0  0  0  0  0  0  0  0  0  0
   -3.3877   -1.7067   -1.5009 C   0  0  0  0  0  0  0  0  0  0  0  0
   -3.9505   -1.1744   -2.2897 H   0  0  0  0  0  0  0  0  0  0  0  0
   -3.3575   -2.7901   -1.7585 H   0  0  0  0  0  0  0  0  0  0  0  0
   -3.7517   -2.5586    0.7689 C   0  0  0  0  0  0  0  0  0  0  0  0
   -3.8266   -3.5815    0.3385 H   0  0  0  0  0  0  0  0  0  0  0  0
   -4.4584   -2.4872    1.6209 H   0  0  0  0  0  0  0  0  0  0  0  0
   -2.3144   -2.3121    1.3144 C   0  0  0  0  0  0  0  0  0  0  0  0
   -5.5073   -1.1377   -0.3768 C   0  0  0  0  0  0  0  0  0  0  0  0
   -6.0462   -1.3879    0.5601 H   0  0  0  0  0  0  0  0  0  0  0  0
   -6.0023   -1.6883   -1.2039 H   0  0  0  0  0  0  0  0  0  0  0  0
   -5.6649    0.3968   -0.5963 C   0  0  0  0  0  0  0  0  0  0  0  0
  2 32  2  0  0  0  0
  3 27  1  0  0  0  0
  3  4  1  0  0  0  0
  5 18  1  0  0  0  0
  6  5  1  0  0  0  0
  7 36  1  0  0  0  0
  8 11  1  0  0  0  0
  8  5  2  0  0  0  0
  9  8  1  0  0  0  0
 11 13  2  0  0  0  0
 13  1  1  0  0  0  0
 13 15  1  0  0  0  0
 15 16  1  0  0  0  0
 17 43  2  0  0  0  0
 18 19  1  0  0  0  0
 18 15  2  0  0  0  0
 20 11  1  0  0  0  0
 20 21  2  0  0  0  0
 21  1  1  0  0  0  0
 22 21  1  0  0  0  0
 22 30  1  0  0  0  0
 23 22  2  0  0  0  0
 24 23  1  0  0  0  0
 25 23  1  0  0  0  0
 25 27  2  0  0  0  0
 26 25  1  0  0  0  0
 27 28  1  0  0  0  0
 28 30  2  0  0  0  0
 28 29  1  0  0  0  0
 30 31  1  0  0  0  0
 32 33  1  0  0  0  0
 32  3  1  0  0  0  0
 33  7  1  0  0  0  0
 34 33  1  0  0  0  0
 35 33  1  0  0  0  0
 36 39  1  0  0  0  0
 36 38  1  0  0  0  0
 37 36  1  0  0  0  0
 39 12  2  0  0  0  0
 39 10  1  0  0  0  0
 40  7  1  0  0  0  0
 40 41  1  0  0  0  0
 42 40  1  0  0  0  0
 43 40  1  0  0  0  0
 43 14  1  0  0  0  0
M  CHG  2  10  -1  14  -1
M  END
