1,2,3
 OpenBabel05122313063D

 32 33  0  0  1  0  0  0  0  0999 V2000
    0.4374   -1.4115    0.0760 N   0  0  0  0  0  2  0  0  0  0  0  0
    2.2740    0.4026    0.8602 O   0  5  0  0  0  0  0  0  0  0  0  0
   -0.0818    0.0179   -1.9559 O   0  0  0  0  0  1  0  0  0  0  0  0
    3.8503   -0.0964    2.5567 C   0  0  0  0  0  0  0  0  0  0  0  0
    4.7213    0.1425    1.9116 H   0  0  0  0  0  0  0  0  0  0  0  0
    4.1360   -0.8816    3.2800 H   0  0  0  0  0  0  0  0  0  0  0  0
    3.5955    0.8355    3.1018 H   0  0  0  0  0  0  0  0  0  0  0  0
    2.6965   -0.5083    1.6830 C   0  0  0  0  0  0  0  0  0  0  0  0
    2.1217   -1.7727    1.7620 C   0  0  0  0  0  0  0  0  0  0  0  0
    2.5316   -2.4829    2.4914 H   0  0  0  0  0  0  0  0  0  0  0  0
    0.9772   -2.1826    1.0059 C   0  0  2  0  0  3  0  0  0  0  0  0
    0.4129   -3.5557    1.3132 C   0  0  0  0  0  0  0  0  0  0  0  0
   -0.6642   -3.5153    1.5696 H   0  0  0  0  0  0  0  0  0  0  0  0
    0.9530   -4.0280    2.1529 H   0  0  0  0  0  0  0  0  0  0  0  0
    0.5107   -4.2197    0.4286 H   0  0  0  0  0  0  0  0  0  0  0  0
   -0.7653   -1.8248   -0.6240 C   0  0  2  0  0  0  0  0  0  0  0  0
   -0.8423   -2.9329   -0.6993 H   0  0  0  0  0  0  0  0  0  0  0  0
   -0.7458   -1.2080   -2.0539 C   0  0  1  0  0  0  0  0  0  0  0  0
   -0.1968   -1.8580   -2.7731 H   0  0  0  0  0  0  0  0  0  0  0  0
   -2.2319   -1.0098   -2.4262 C   0  0  0  0  0  0  0  0  0  0  0  0
   -2.3540   -0.1466   -3.1102 H   0  0  0  0  0  0  0  0  0  0  0  0
   -2.6241   -1.9085   -2.9515 H   0  0  0  0  0  0  0  0  0  0  0  0
   -2.9056   -0.8262   -1.0861 C   0  0  0  0  0  0  0  0  0  0  0  0
   -4.1633   -0.2830   -0.7867 C   0  0  0  0  0  0  0  0  0  0  0  0
   -4.8230    0.0754   -1.5922 H   0  0  0  0  0  0  0  0  0  0  0  0
   -4.5648   -0.1818    0.5574 C   0  0  0  0  0  0  0  0  0  0  0  0
   -5.5470    0.2494    0.8037 H   0  0  0  0  0  0  0  0  0  0  0  0
   -3.7150   -0.6165    1.5908 C   0  0  0  0  0  0  0  0  0  0  0  0
   -4.0370   -0.5233    2.6393 H   0  0  0  0  0  0  0  0  0  0  0  0
   -2.4557   -1.1671    1.2915 C   0  0  0  0  0  0  0  0  0  0  0  0
   -1.7822   -1.4866    2.1020 H   0  0  0  0  0  0  0  0  0  0  0  0
   -2.0632   -1.2738   -0.0477 C   0  0  0  0  0  0  0  0  0  0  0  0
  2  8  1  0  0  0  0
  4  7  1  0  0  0  0
  4  6  1  0  0  0  0
  5  4  1  0  0  0  0
  8  9  2  0  0  0  0
  8  4  1  0  0  0  0
  9 10  1  0  0  0  0
 11  1  1  6  0  0  0
 11 12  1  0  0  0  0
 11  9  1  0  0  0  0
 12 13  1  0  0  0  0
 12 14  1  0  0  0  0
 15 12  1  0  0  0  0
 16 17  1  6  0  0  0
 16 32  1  0  0  0  0
 16  1  1  0  0  0  0
 18 19  1  6  0  0  0
 18  3  1  0  0  0  0
 18 16  1  0  0  0  0
 20 18  1  0  0  0  0
 20 23  1  0  0  0  0
 21 20  1  0  0  0  0
 22 20  1  0  0  0  0
 23 24  2  0  0  0  0
 23 32  1  0  0  0  0
 24 26  1  0  0  0  0
 25 24  1  0  0  0  0
 26 27  1  0  0  0  0
 26 28  2  0  0  0  0
 28 29  1  0  0  0  0
 30 28  1  0  0  0  0
 30 31  1  0  0  0  0
 32 30  2  0  0  0  0
M  CHG  1   2  -1
M  END
