1,25,26
 OpenBabel05122313063D

 27 28  0  0  0  0  0  0  0  0999 V2000
    0.5268    1.2458   -0.4016 N   0  0  0  0  0  2  0  0  0  0  0  0
   -2.3327    1.2090    0.4148 C   0  0  0  0  0  0  0  0  0  0  0  0
   -3.6970    1.3782    0.8030 C   0  0  0  0  0  0  0  0  0  0  0  0
   -4.1765    0.5495    1.3448 H   0  0  0  0  0  0  0  0  0  0  0  0
   -4.3988    2.5359    0.4848 C   0  0  0  0  0  0  0  0  0  0  0  0
   -5.4553    2.6248    0.7830 H   0  0  0  0  0  0  0  0  0  0  0  0
   -3.7761    3.5995   -0.2160 C   0  0  0  0  0  0  0  0  0  0  0  0
   -4.3405    4.5107   -0.4603 H   0  0  0  0  0  0  0  0  0  0  0  0
   -2.4397    3.4785   -0.5737 C   0  0  0  0  0  3  0  0  0  0  0  0
   -1.9287    4.3025   -1.0973 H   0  0  0  0  0  0  0  0  0  0  0  0
   -1.6899    2.3046   -0.2724 C   0  0  0  0  0  0  0  0  0  0  0  0
   -0.2930    2.2750   -0.5639 C   0  0  0  0  0  0  0  0  0  0  0  0
    0.1524    3.2172   -0.9347 H   0  0  0  0  0  0  0  0  0  0  0  0
    1.9238    1.4976   -0.4485 C   0  0  0  0  0  0  0  0  0  0  0  0
    2.4365    2.7208    0.0510 C   0  0  0  0  0  0  0  0  0  0  0  0
    1.7539    3.4335    0.5361 H   0  0  0  0  0  0  0  0  0  0  0  0
    3.8029    3.0128   -0.0285 C   0  0  0  0  0  0  0  0  0  0  0  0
    4.1773    3.9639    0.3799 H   0  0  0  0  0  0  0  0  0  0  0  0
    4.6882    2.0927   -0.6149 C   0  0  0  0  0  0  0  0  0  0  0  0
    5.7619    2.3216   -0.6875 H   0  0  0  0  0  0  0  0  0  0  0  0
    4.1912    0.8720   -1.0856 C   0  0  0  0  0  0  0  0  0  0  0  0
    4.8433    0.1142   -1.5453 H   0  0  0  0  0  0  0  0  0  0  0  0
    2.8277    0.5438   -0.9812 C   0  0  0  0  0  0  0  0  0  0  0  0
    2.4166   -0.8382   -1.4176 C   0  0  0  0  0  0  0  0  0  0  0  0
   -1.7272    0.0883    0.6901 O   0  5  0  0  0  0  0  0  0  0  0  0
    1.3157   -1.3150   -0.8911 O   0  5  0  0  0  0  0  0  0  0  0  0
    3.1257   -1.5046   -2.1757 O   0  0  0  0  0  0  0  0  0  0  0  0
  2 25  1  0  0  0  0
  2  3  2  0  0  0  0
  3  4  1  0  0  0  0
  5  6  1  0  0  0  0
  5  3  1  0  0  0  0
  7  5  2  0  0  0  0
  8  7  1  0  0  0  0
  9 11  1  0  0  0  0
  9  7  1  0  0  0  0
 10  9  1  0  0  0  0
 11  2  1  0  0  0  0
 12  1  1  0  0  0  0
 12 11  2  0  0  0  0
 13 12  1  0  0  0  0
 14  1  1  0  0  0  0
 14 15  1  0  0  0  0
 15 16  1  0  0  0  0
 17 15  2  0  0  0  0
 17 18  1  0  0  0  0
 19 17  1  0  0  0  0
 20 19  1  0  0  0  0
 21 23  1  0  0  0  0
 21 19  2  0  0  0  0
 22 21  1  0  0  0  0
 23 14  2  0  0  0  0
 24 23  1  0  0  0  0
 24 26  1  0  0  0  0
 27 24  2  0  0  0  0
M  CHG  2  25  -1  26  -1
M  END
