1,2,3
 OpenBabel05122313063D

 37 39  0  0  0  0  0  0  0  0999 V2000
   -1.7602   -1.7587    0.0896 O   0  5  0  0  0  0  0  0  0  0  0  0
    1.9313   -0.9773   -0.3865 O   0  5  0  0  0  0  0  0  0  0  0  0
   -0.1333    0.3981   -0.0469 N   0  0  0  0  0  2  0  0  0  0  0  0
    1.0323    1.1072    0.0626 N   0  0  0  0  0  0  0  0  0  0  0  0
   -2.5751    0.5161    0.0360 C   0  0  0  0  0  0  0  0  0  0  0  0
   -3.7403    1.3876    0.0357 C   0  0  0  0  0  0  0  0  0  0  0  0
    2.0689    0.3170   -0.1551 C   0  0  0  0  0  0  0  0  0  0  0  0
   -1.2549    1.0791    0.0611 C   0  0  0  0  0  3  0  0  0  0  0  0
   -1.1303    2.1680    0.1902 H   0  0  0  0  0  0  0  0  0  0  0  0
   -2.7667   -0.8942    0.0634 C   0  0  0  0  0  0  0  0  0  0  0  0
   -5.0566    0.8024    0.0821 C   0  0  0  0  0  0  0  0  0  0  0  0
   -5.1865   -0.6197    0.1208 C   0  0  0  0  0  0  0  0  0  0  0  0
   -6.1975   -1.0549    0.1561 H   0  0  0  0  0  0  0  0  0  0  0  0
   -4.0815   -1.4445    0.1118 C   0  0  0  0  0  0  0  0  0  0  0  0
   -4.1692   -2.5394    0.1416 H   0  0  0  0  0  0  0  0  0  0  0  0
    3.6664    2.2330    0.1282 C   0  0  0  0  0  0  0  0  0  0  0  0
    2.8012    2.8915    0.2891 H   0  0  0  0  0  0  0  0  0  0  0  0
    3.4369    0.8601   -0.1199 C   0  0  0  0  0  0  0  0  0  0  0  0
   -3.6557    2.8079   -0.0208 C   0  0  0  0  0  0  0  0  0  0  0  0
   -2.6760    3.3013   -0.0793 H   0  0  0  0  0  0  0  0  0  0  0  0
   -6.0858    3.0220    0.0365 C   0  0  0  0  0  0  0  0  0  0  0  0
   -6.9811    3.6610    0.0369 H   0  0  0  0  0  0  0  0  0  0  0  0
    4.5399    0.0072   -0.3318 C   0  0  0  0  0  0  0  0  0  0  0  0
    4.3562   -1.0586   -0.5289 H   0  0  0  0  0  0  0  0  0  0  0  0
   -6.2065    1.6407    0.0831 C   0  0  0  0  0  0  0  0  0  0  0  0
   -7.1995    1.1663    0.1193 H   0  0  0  0  0  0  0  0  0  0  0  0
    4.9698    2.7301    0.1651 C   0  0  0  0  0  0  0  0  0  0  0  0
    5.1357    3.8017    0.3598 H   0  0  0  0  0  0  0  0  0  0  0  0
    6.0842    1.8850   -0.0458 C   0  0  0  0  0  0  0  0  0  0  0  0
    5.8424    0.5186   -0.2938 C   0  0  0  0  0  0  0  0  0  0  0  0
    6.6956   -0.1572   -0.4619 H   0  0  0  0  0  0  0  0  0  0  0  0
   -4.7961    3.6037   -0.0182 C   0  0  0  0  0  0  0  0  0  0  0  0
   -4.6911    4.6982   -0.0639 H   0  0  0  0  0  0  0  0  0  0  0  0
    7.4834    2.4421   -0.0149 C   0  0  0  0  0  0  0  0  0  0  0  0
    7.6425    3.1657   -0.8423 H   0  0  0  0  0  0  0  0  0  0  0  0
    8.2453    1.6453   -0.1121 H   0  0  0  0  0  0  0  0  0  0  0  0
    7.6779    2.9916    0.9294 H   0  0  0  0  0  0  0  0  0  0  0  0
  2  7  1  0  0  0  0
  3  8  1  0  0  0  0
  3  4  1  0  0  0  0
  5  8  1  0  0  0  0
  5 10  1  0  0  0  0
  6  5  2  0  0  0  0
  6 11  1  0  0  0  0
  7 18  1  0  0  0  0
  7  4  2  0  0  0  0
  8  9  1  0  0  0  0
 10  1  1  0  0  0  0
 10 14  2  0  0  0  0
 11 25  1  0  0  0  0
 11 12  2  0  0  0  0
 12 13  1  0  0  0  0
 14 12  1  0  0  0  0
 14 15  1  0  0  0  0
 16 27  1  0  0  0  0
 16 17  1  0  0  0  0
 18 16  2  0  0  0  0
 19 32  2  0  0  0  0
 19  6  1  0  0  0  0
 20 19  1  0  0  0  0
 21 22  1  0  0  0  0
 21 25  2  0  0  0  0
 23 30  2  0  0  0  0
 23 18  1  0  0  0  0
 24 23  1  0  0  0  0
 25 26  1  0  0  0  0
 27 28  1  0  0  0  0
 29 34  1  0  0  0  0
 29 27  2  0  0  0  0
 30 29  1  0  0  0  0
 31 30  1  0  0  0  0
 32 21  1  0  0  0  0
 33 32  1  0  0  0  0
 34 37  1  0  0  0  0
 35 34  1  0  0  0  0
 36 34  1  0  0  0  0
M  CHG  2   1  -1   2  -1
M  END
