3,5,6
q = -2.0, confidence = 0.896

 28 29  0  0  0  0  0  0  0  0999 V2000
    6.4723   -1.3172    0.0597 Br  0  0  0  0  0  0  0  0  0  0  0  0
   -5.0373    0.7475    0.3369 Cl  0  0  0  0  0  0  0  0  0  0  0  0
   -0.0482   -0.6364   -0.0519 N   0  0  0  0  0  2  0  0  0  0  0  0
   -1.1124   -1.4800    0.0519 N   0  0  0  0  0  0  0  0  0  0  0  0
    1.2377    1.7188    0.0340 O   0  5  0  0  0  0  0  0  0  0  0  0
   -2.2397    0.4869   -0.3348 O   0  5  0  0  0  0  0  0  0  0  0  0
    2.3746   -0.4001    0.0129 C   0  0  0  0  0  0  0  0  0  0  0  0
    2.3663    1.0350    0.0160 C   0  0  0  0  0  0  0  0  0  0  0  0
    3.6024    1.7252    0.0395 C   0  0  0  0  0  0  0  0  0  0  0  0
    3.5793    2.8240    0.0479 H   0  0  0  0  0  0  0  0  0  0  0  0
    4.8133    1.0314    0.0501 C   0  0  0  0  0  0  0  0  0  0  0  0
    5.7659    1.5800    0.0625 H   0  0  0  0  0  0  0  0  0  0  0  0
    4.8155   -0.3798    0.0455 C   0  0  0  0  0  0  0  0  0  0  0  0
    3.6154   -1.0881    0.0332 C   0  0  0  0  0  0  0  0  0  0  0  0
    3.6203   -2.1879    0.0351 H   0  0  0  0  0  0  0  0  0  0  0  0
    1.1523   -1.1594    0.0436 C   0  0  0  0  0  3  0  0  0  0  0  0
    1.2102   -2.2580    0.1613 H   0  0  0  0  0  0  0  0  0  0  0  0
   -2.2377   -0.7953   -0.1343 C   0  0  0  0  0  0  0  0  0  0  0  0
   -3.5175   -1.5481   -0.1162 C   0  0  0  0  0  0  0  0  0  0  0  0
   -4.7976   -0.9601    0.0505 C   0  0  0  0  0  0  0  0  0  0  0  0
   -5.9597   -1.7521    0.0307 C   0  0  0  0  0  0  0  0  0  0  0  0
   -6.9333   -1.2607    0.1661 H   0  0  0  0  0  0  0  0  0  0  0  0
   -5.8700   -3.1366   -0.1512 C   0  0  0  0  0  0  0  0  0  0  0  0
   -6.7889   -3.7417   -0.1691 H   0  0  0  0  0  0  0  0  0  0  0  0
   -4.6118   -3.7420   -0.3052 C   0  0  0  0  0  0  0  0  0  0  0  0
   -4.5301   -4.8297   -0.4460 H   0  0  0  0  0  0  0  0  0  0  0  0
   -3.4600   -2.9535   -0.2852 C   0  0  0  0  0  0  0  0  0  0  0  0
   -2.4627   -3.3987   -0.4051 H   0  0  0  0  0  0  0  0  0  0  0  0
  3 16  1  0  0  0  0
  3  4  1  0  0  0  0
  6 18  1  0  0  0  0
  7  8  2  0  0  0  0
  7 14  1  0  0  0  0
  7 16  1  0  0  0  0
  8  5  1  0  0  0  0
  8  9  1  0  0  0  0
  9 10  1  0  0  0  0
  9 11  2  0  0  0  0
 11 12  1  0  0  0  0
 13 11  1  0  0  0  0
 13  1  1  0  0  0  0
 14 15  1  0  0  0  0
 14 13  2  0  0  0  0
 16 17  1  0  0  0  0
 18 19  1  0  0  0  0
 18  4  2  0  0  0  0
 19 20  1  0  0  0  0
 20  2  1  0  0  0  0
 21 20  2  0  0  0  0
 21 22  1  0  0  0  0
 23 21  1  0  0  0  0
 24 23  1  0  0  0  0
 25 27  1  0  0  0  0
 25 23  2  0  0  0  0
 26 25  1  0  0  0  0
 27 19  2  0  0  0  0
 28 27  1  0  0  0  0
M  CHG  2   5  -1   6  -1
M  END
