1,6,9
 OpenBabel05122313063D

 32 33  0  0  1  0  0  0  0  0999 V2000
   -0.4633    1.2214   -0.1882 O   0  0  0  0  0  1  0  0  0  0  0  0
   -1.7116    3.5700    0.3683 O   0  0  0  0  0  0  0  0  0  0  0  0
   -3.4800    3.5434   -0.9203 O   0  0  0  0  0  0  0  0  0  0  0  0
   -6.5396   -0.0460    0.6311 O   0  0  0  0  0  0  0  0  0  0  0  0
   -5.7033   -2.0472    0.9306 O   0  0  0  0  0  0  0  0  0  0  0  0
    2.8438   -0.4185   -0.3995 O   0  5  0  0  0  0  0  0  0  0  0  0
   -2.6435    2.9970   -0.1996 N   0  0  0  0  0  0  0  0  0  0  0  0
   -5.5970   -0.8381    0.7012 N   0  0  0  0  0  0  0  0  0  0  0  0
    0.5055   -1.3411    0.1442 N   0  0  0  0  0  2  0  0  0  0  0  0
   -1.6180    0.7144    0.0592 C   0  0  1  0  0  3  0  0  0  0  0  0
   -2.7926    1.5502    0.0235 C   0  0  0  0  0  0  0  0  0  0  0  0
   -4.0799    1.0607    0.1982 C   0  0  0  0  0  0  0  0  0  0  0  0
   -4.2456   -0.3042    0.4920 C   0  0  0  0  0  0  0  0  0  0  0  0
   -3.1495   -1.1644    0.5725 C   0  0  0  0  0  0  0  0  0  0  0  0
   -1.8412   -0.6924    0.3465 C   0  0  0  0  0  0  0  0  0  0  0  0
   -0.7561   -1.6291    0.3817 C   0  0  0  0  0  0  0  0  0  0  0  0
    1.5378   -2.2956    0.1634 C   0  0  0  0  0  0  0  0  0  0  0  0
    1.4219   -3.6732    0.4443 C   0  0  0  0  0  0  0  0  0  0  0  0
    2.5532   -4.4991    0.4175 C   0  0  0  0  0  0  0  0  0  0  0  0
    3.8091   -3.9099    0.1009 C   0  0  0  0  0  0  0  0  0  0  0  0
    3.9439   -2.5511   -0.1790 C   0  0  0  0  0  0  0  0  0  0  0  0
    2.7994   -1.7115   -0.1497 C   0  0  0  0  0  0  0  0  0  0  0  0
    2.4587   -5.9752    0.7145 C   0  0  0  0  0  0  0  0  0  0  0  0
   -4.9504    1.7243    0.1226 H   0  0  0  0  0  0  0  0  0  0  0  0
   -3.3356   -2.2236    0.7994 H   0  0  0  0  0  0  0  0  0  0  0  0
   -1.0229   -2.6748    0.6153 H   0  0  0  0  0  0  0  0  0  0  0  0
    0.4440   -4.1158    0.6875 H   0  0  0  0  0  0  0  0  0  0  0  0
    4.7044   -4.5521    0.0773 H   0  0  0  0  0  0  0  0  0  0  0  0
    4.9192   -2.1051   -0.4215 H   0  0  0  0  0  0  0  0  0  0  0  0
    3.0865   -6.2568    1.5863 H   0  0  0  0  0  0  0  0  0  0  0  0
    1.4183   -6.2817    0.9380 H   0  0  0  0  0  0  0  0  0  0  0  0
    2.8127   -6.5872   -0.1420 H   0  0  0  0  0  0  0  0  0  0  0  0
  3  7  2  0  0  0  0
  4  8  2  0  0  0  0
  6 22  1  0  0  0  0
  7 11  1  0  0  0  0
  7  2  2  0  0  0  0
  8  5  2  0  0  0  0
  9 17  1  0  0  0  0
  9 16  1  0  0  0  0
 10  1  1  6  0  0  0
 10 15  1  0  0  0  0
 11 10  1  0  0  0  0
 11 12  2  0  0  0  0
 12 13  1  0  0  0  0
 13 14  2  0  0  0  0
 13  8  1  0  0  0  0
 14 25  1  0  0  0  0
 15 16  2  0  0  0  0
 15 14  1  0  0  0  0
 16 26  1  0  0  0  0
 17 18  1  0  0  0  0
 18 27  1  0  0  0  0
 19 18  2  0  0  0  0
 19 23  1  0  0  0  0
 20 19  1  0  0  0  0
 21 22  1  0  0  0  0
 21 20  2  0  0  0  0
 22 17  2  0  0  0  0
 23 31  1  0  0  0  0
 23 30  1  0  0  0  0
 24 12  1  0  0  0  0
 28 20  1  0  0  0  0
 29 21  1  0  0  0  0
 32 23  1  0  0  0  0
M  CHG  1   6  -1
M  END
