1,2,5
 OpenBabel05122313063D

 37 38  0  0  0  0  0  0  0  0999 V2000
   -3.8249    0.2109    0.0005 O   0  5  0  0  0  0  0  0  0  0  0  0
   -0.1584    0.4199   -0.0001 O   0  5  0  0  0  0  0  0  0  0  0  0
    6.7287   -2.3325   -0.0000 O   0  0  0  0  0  0  0  0  0  0  0  0
    6.7999   -0.0645   -0.0004 O   0  0  0  0  0  0  0  0  0  0  0  0
   -1.6830   -1.5184    0.0001 N   0  0  0  0  0  2  0  0  0  0  0  0
   -0.3630   -1.8780    0.0000 N   0  0  0  0  0  0  0  0  0  0  0  0
   -4.5592   -0.8808    0.0002 C   0  0  0  0  0  0  0  0  0  0  0  0
   -5.9767   -0.7376    0.0003 C   0  0  0  0  0  0  0  0  0  0  0  0
   -6.8172   -1.8466    0.0001 C   0  0  0  0  0  0  0  0  0  0  0  0
   -6.2846   -3.1584   -0.0001 C   0  0  0  0  0  0  0  0  0  0  0  0
   -4.9059   -3.3289   -0.0001 C   0  0  0  0  0  3  0  0  0  0  0  0
   -4.0129   -2.2181    0.0001 C   0  0  0  0  0  0  0  0  0  0  0  0
   -2.6043   -2.4637    0.0000 C   0  0  0  0  0  0  0  0  0  0  0  0
    0.3798   -0.7826   -0.0001 C   0  0  0  0  0  0  0  0  0  0  0  0
    1.8516   -0.8960   -0.0002 C   0  0  0  0  0  0  0  0  0  0  0  0
    2.6494    0.2695   -0.0003 C   0  0  0  0  0  0  0  0  0  0  0  0
    4.0437    0.1739   -0.0003 C   0  0  0  0  0  0  0  0  0  0  0  0
    4.6665   -1.0917   -0.0002 C   0  0  0  0  0  0  0  0  0  0  0  0
    3.8707   -2.2577   -0.0001 C   0  0  0  0  0  0  0  0  0  0  0  0
    2.4790   -2.1638   -0.0000 C   0  0  0  0  0  0  0  0  0  0  0  0
    6.1490   -1.2579   -0.0002 C   0  0  0  0  0  0  0  0  0  0  0  0
    8.2382   -0.1390   -0.0003 C   0  0  0  0  0  0  0  0  0  0  0  0
    8.7790    1.2761    0.0014 C   0  0  0  0  0  0  0  0  0  0  0  0
   -6.3785    0.2863    0.0004 H   0  0  0  0  0  0  0  0  0  0  0  0
   -7.9083   -1.6980    0.0001 H   0  0  0  0  0  0  0  0  0  0  0  0
   -6.9538   -4.0308   -0.0002 H   0  0  0  0  0  0  0  0  0  0  0  0
   -4.4728   -4.3418   -0.0002 H   0  0  0  0  0  0  0  0  0  0  0  0
   -2.2313   -3.5034   -0.0001 H   0  0  0  0  0  0  0  0  0  0  0  0
    2.1506    1.2488   -0.0004 H   0  0  0  0  0  0  0  0  0  0  0  0
    4.6679    1.0781   -0.0005 H   0  0  0  0  0  0  0  0  0  0  0  0
    4.3790   -3.2330    0.0000 H   0  0  0  0  0  0  0  0  0  0  0  0
    1.8455   -3.0617    0.0001 H   0  0  0  0  0  0  0  0  0  0  0  0
    8.5690   -0.7176    0.8887 H   0  0  0  0  0  0  0  0  0  0  0  0
    8.5692   -0.7154   -0.8907 H   0  0  0  0  0  0  0  0  0  0  0  0
    9.8869    1.2598    0.0014 H   0  0  0  0  0  0  0  0  0  0  0  0
    8.4411    1.8323   -0.8956 H   0  0  0  0  0  0  0  0  0  0  0  0
    8.4410    1.8302    0.8997 H   0  0  0  0  0  0  0  0  0  0  0  0
  4 22  1  0  0  0  0
  4 21  1  0  0  0  0
  6  5  1  0  0  0  0
  7  8  2  0  0  0  0
  7  1  1  0  0  0  0
  8 24  1  0  0  0  0
  9 25  1  0  0  0  0
  9  8  1  0  0  0  0
 10  9  2  0  0  0  0
 11 10  1  0  0  0  0
 11 12  1  0  0  0  0
 12  7  1  0  0  0  0
 13 12  2  0  0  0  0
 13  5  1  0  0  0  0
 14  2  1  0  0  0  0
 14  6  2  0  0  0  0
 15 14  1  0  0  0  0
 15 20  1  0  0  0  0
 16 15  2  0  0  0  0
 17 16  1  0  0  0  0
 17 18  2  0  0  0  0
 18 19  1  0  0  0  0
 19 20  2  0  0  0  0
 19 31  1  0  0  0  0
 20 32  1  0  0  0  0
 21 18  1  0  0  0  0
 21  3  2  0  0  0  0
 22 23  1  0  0  0  0
 22 33  1  0  0  0  0
 23 35  1  0  0  0  0
 23 37  1  0  0  0  0
 26 10  1  0  0  0  0
 27 11  1  0  0  0  0
 28 13  1  0  0  0  0
 29 16  1  0  0  0  0
 30 17  1  0  0  0  0
 34 22  1  0  0  0  0
 36 23  1  0  0  0  0
M  CHG  2   1  -1   2  -1
M  END
