1,3,4
 OpenBabel05122313063D

 32 33  0  0  0  0  0  0  0  0999 V2000
    0.2676   -0.6231   -0.0088 N   0  0  0  0  0  2  0  0  0  0  0  0
   -0.9746   -1.1647   -0.0236 N   0  0  0  0  0  0  0  0  0  0  0  0
    2.0192    1.2830   -0.5123 O   0  5  0  0  0  0  0  0  0  0  0  0
   -1.5393    1.0494   -0.1749 O   0  5  0  0  0  0  0  0  0  0  0  0
   -2.8263   -2.9539    0.0545 O   0  0  0  0  0  0  0  0  0  0  0  0
   -1.9021   -2.5322    0.0375 H   0  0  0  0  0  0  0  0  0  0  0  0
    2.6678   -0.9828   -0.0380 C   0  0  0  0  0  0  0  0  0  0  0  0
    2.9797    0.3835   -0.3237 C   0  0  0  0  0  0  0  0  0  0  0  0
    4.3344    0.7652   -0.4479 C   0  0  0  0  0  0  0  0  0  0  0  0
    4.5574    1.8170   -0.6762 H   0  0  0  0  0  0  0  0  0  0  0  0
    5.3493   -0.1772   -0.2818 C   0  0  0  0  0  0  0  0  0  0  0  0
    6.3985    0.1456   -0.3775 H   0  0  0  0  0  0  0  0  0  0  0  0
    5.0698   -1.5384    0.0053 C   0  0  0  0  0  0  0  0  0  0  0  0
    3.7285   -1.9147    0.1136 C   0  0  0  0  0  0  0  0  0  0  0  0
    3.4725   -2.9650    0.3277 H   0  0  0  0  0  0  0  0  0  0  0  0
    6.1910   -2.5301    0.1843 C   0  0  0  0  0  0  0  0  0  0  0  0
    5.8071   -3.5521    0.3671 H   0  0  0  0  0  0  0  0  0  0  0  0
    6.8398   -2.2547    1.0422 H   0  0  0  0  0  0  0  0  0  0  0  0
    6.8443   -2.5680   -0.7122 H   0  0  0  0  0  0  0  0  0  0  0  0
    1.3043   -1.4289    0.0289 C   0  0  0  0  0  3  0  0  0  0  0  0
    1.1020   -2.5144    0.0994 H   0  0  0  0  0  0  0  0  0  0  0  0
   -1.9003   -0.2040   -0.0892 C   0  0  0  0  0  0  0  0  0  0  0  0
   -3.3127   -0.5733   -0.0875 C   0  0  0  0  0  0  0  0  0  0  0  0
   -3.7066   -1.9516   -0.0124 C   0  0  0  0  0  0  0  0  0  0  0  0
   -5.0875   -2.2603   -0.0106 C   0  0  0  0  0  0  0  0  0  0  0  0
   -5.3739   -3.3201    0.0476 H   0  0  0  0  0  0  0  0  0  0  0  0
   -6.0433   -1.2463   -0.0806 C   0  0  0  0  0  0  0  0  0  0  0  0
   -7.1115   -1.5134   -0.0773 H   0  0  0  0  0  0  0  0  0  0  0  0
   -5.6595    0.1104   -0.1553 C   0  0  0  0  0  0  0  0  0  0  0  0
   -6.4210    0.9016   -0.2100 H   0  0  0  0  0  0  0  0  0  0  0  0
   -4.3044    0.4345   -0.1586 C   0  0  0  0  0  0  0  0  0  0  0  0
   -3.9667    1.4793   -0.2151 H   0  0  0  0  0  0  0  0  0  0  0  0
  1 20  1  0  0  0  0
  2  1  1  0  0  0  0
  3  8  1  0  0  0  0
  4 22  1  0  0  0  0
  6  5  1  0  0  0  0
  7 20  1  0  0  0  0
  7 14  1  0  0  0  0
  8  7  2  0  0  0  0
  9  8  1  0  0  0  0
  9 11  2  0  0  0  0
 10  9  1  0  0  0  0
 11 13  1  0  0  0  0
 12 11  1  0  0  0  0
 13 14  2  0  0  0  0
 13 16  1  0  0  0  0
 14 15  1  0  0  0  0
 16 17  1  0  0  0  0
 16 18  1  0  0  0  0
 19 16  1  0  0  0  0
 20 21  1  0  0  0  0
 22 23  1  0  0  0  0
 22  2  2  0  0  0  0
 23 24  1  0  0  0  0
 24 25  2  0  0  0  0
 24  5  1  0  0  0  0
 25 26  1  0  0  0  0
 27 28  1  0  0  0  0
 27 25  1  0  0  0  0
 29 27  2  0  0  0  0
 30 29  1  0  0  0  0
 31 29  1  0  0  0  0
 31 23  2  0  0  0  0
 32 31  1  0  0  0  0
M  CHG  2   3  -1   4  -1
M  END
