2,4,5
 OpenBabel05122313063D

 32 33  0  0  0  0  0  0  0  0999 V2000
   -6.4510   -2.0529    0.0821 Br  0  0  0  0  0  0  0  0  0  0  0  0
   -0.1180   -0.3898   -0.2012 N   0  0  0  0  0  2  0  0  0  0  0  0
    1.0453   -1.0987   -0.1355 N   0  0  0  0  0  0  0  0  0  0  0  0
   -1.7866    1.7968   -0.2019 O   0  5  0  0  0  0  0  0  0  0  0  0
    1.9370    1.0184   -0.3942 O   0  5  0  0  0  0  0  0  0  0  0  0
    7.3139   -2.4015   -0.1355 O   0  0  0  0  0  0  0  0  0  0  0  0
   -2.5551   -0.4937   -0.0933 C   0  0  0  0  0  0  0  0  0  0  0  0
   -2.7821    0.9183   -0.1613 C   0  0  0  0  0  0  0  0  0  0  0  0
   -4.1094    1.4028   -0.1589 C   0  0  0  0  0  0  0  0  0  0  0  0
   -4.2607    2.4901   -0.2114 H   0  0  0  0  0  0  0  0  0  0  0  0
   -5.1951    0.5272   -0.0893 C   0  0  0  0  0  0  0  0  0  0  0  0
   -6.2226    0.9176   -0.0883 H   0  0  0  0  0  0  0  0  0  0  0  0
   -4.9699   -0.8628   -0.0168 C   0  0  0  0  0  0  0  0  0  0  0  0
   -3.6706   -1.3680   -0.0169 C   0  0  0  0  0  0  0  0  0  0  0  0
   -3.4982   -2.4527    0.0388 H   0  0  0  0  0  0  0  0  0  0  0  0
   -1.2343   -1.0684   -0.0815 C   0  0  0  0  0  3  0  0  0  0  0  0
   -1.1378   -2.1645    0.0335 H   0  0  0  0  0  0  0  0  0  0  0  0
    2.0835   -0.2905   -0.2682 C   0  0  0  0  0  0  0  0  0  0  0  0
    3.4497   -0.8226   -0.2404 C   0  0  0  0  0  0  0  0  0  0  0  0
    4.5506    0.0449   -0.3957 C   0  0  0  0  0  0  0  0  0  0  0  0
    4.3614    1.1172   -0.5469 H   0  0  0  0  0  0  0  0  0  0  0  0
    5.8619   -0.4429   -0.3673 C   0  0  0  0  0  0  0  0  0  0  0  0
    6.6990    0.2560   -0.4942 H   0  0  0  0  0  0  0  0  0  0  0  0
    6.0890   -1.8243   -0.1802 C   0  0  0  0  0  0  0  0  0  0  0  0
    4.9872   -2.7013   -0.0257 C   0  0  0  0  0  0  0  0  0  0  0  0
    5.1925   -3.7721    0.1155 H   0  0  0  0  0  0  0  0  0  0  0  0
    3.6883   -2.2079   -0.0577 C   0  0  0  0  0  0  0  0  0  0  0  0
    2.8265   -2.8800    0.0579 H   0  0  0  0  0  0  0  0  0  0  0  0
    8.4598   -1.5814   -0.2927 C   0  0  0  0  0  0  0  0  0  0  0  0
    8.4685   -1.0707   -1.2810 H   0  0  0  0  0  0  0  0  0  0  0  0
    9.3349   -2.2533   -0.2260 H   0  0  0  0  0  0  0  0  0  0  0  0
    8.5301   -0.8131    0.5089 H   0  0  0  0  0  0  0  0  0  0  0  0
  2  3  1  0  0  0  0
  2 16  1  0  0  0  0
  4  8  1  0  0  0  0
  5 18  1  0  0  0  0
  7 16  1  0  0  0  0
  7 14  1  0  0  0  0
  8  9  1  0  0  0  0
  8  7  2  0  0  0  0
  9 11  2  0  0  0  0
 10  9  1  0  0  0  0
 11 12  1  0  0  0  0
 11 13  1  0  0  0  0
 13  1  1  0  0  0  0
 14 13  2  0  0  0  0
 14 15  1  0  0  0  0
 16 17  1  0  0  0  0
 18 19  1  0  0  0  0
 18  3  2  0  0  0  0
 19 27  1  0  0  0  0
 20 22  1  0  0  0  0
 20 19  2  0  0  0  0
 21 20  1  0  0  0  0
 22 24  2  0  0  0  0
 23 22  1  0  0  0  0
 24  6  1  0  0  0  0
 24 25  1  0  0  0  0
 25 26  1  0  0  0  0
 27 25  2  0  0  0  0
 27 28  1  0  0  0  0
 29 31  1  0  0  0  0
 29  6  1  0  0  0  0
 29 32  1  0  0  0  0
 30 29  1  0  0  0  0
M  CHG  2   4  -1   5  -1
M  END
