11,24,51
 OpenBabel05122313063D

 53 54  0  0  0  0  0  0  0  0999 V2000
   -2.0934    0.1082   -0.1851 C   0  0  0  0  0  0  0  0  0  0  0  0
   -3.3405    0.8039   -0.1657 C   0  0  0  0  0  0  0  0  0  0  0  0
   -4.4930    0.0343    0.0430 C   0  0  0  0  0  0  0  0  0  0  0  0
   -5.4598    0.5547    0.0521 H   0  0  0  0  0  0  0  0  0  0  0  0
   -4.4972   -1.3706    0.2450 C   0  0  0  0  0  0  0  0  0  0  0  0
   -3.2631   -2.0188    0.2385 C   0  0  0  0  0  0  0  0  0  0  0  0
   -3.1925   -3.1039    0.3979 H   0  0  0  0  0  0  0  0  0  0  0  0
   -2.0563   -1.3046    0.0219 C   0  0  0  0  0  0  0  0  0  0  0  0
   -0.8049   -2.0076    0.0788 C   0  0  0  0  0  3  0  0  0  0  0  0
   -0.8184   -3.0690    0.3888 H   0  0  0  0  0  0  0  0  0  0  0  0
    0.3742   -1.4928   -0.1884 N   0  0  0  0  0  2  0  0  0  0  0  0
    1.4723   -2.2753   -0.0107 N   0  0  0  0  0  0  0  0  0  0  0  0
    2.5828   -1.6095   -0.3273 C   0  0  0  0  0  0  0  0  0  0  0  0
    3.8754   -2.2805   -0.2060 C   0  0  0  0  0  0  0  0  0  0  0  0
    5.0616   -1.5857   -0.5404 C   0  0  0  0  0  0  0  0  0  0  0  0
    4.9621   -0.5480   -0.8905 H   0  0  0  0  0  0  0  0  0  0  0  0
    6.3086   -2.1991   -0.4306 C   0  0  0  0  0  0  0  0  0  0  0  0
    7.2240   -1.6505   -0.6954 H   0  0  0  0  0  0  0  0  0  0  0  0
    6.3818   -3.5340    0.0226 C   0  0  0  0  0  0  0  0  0  0  0  0
    7.3615   -4.0286    0.1126 H   0  0  0  0  0  0  0  0  0  0  0  0
    5.2276   -4.2423    0.3598 C   0  0  0  0  0  0  0  0  0  0  0  0
    5.2718   -5.2824    0.7134 H   0  0  0  0  0  0  0  0  0  0  0  0
    3.9528   -3.6373    0.2537 C   0  0  0  0  0  0  0  0  0  0  0  0
   -0.9567    0.7638   -0.3550 O   0  5  0  0  0  0  0  0  0  0  0  0
   -3.3915    2.3285   -0.3716 C   0  0  0  0  0  0  0  0  0  0  0  0
   -2.5587    3.0298    0.7283 C   0  0  0  0  0  0  0  0  0  0  0  0
   -2.9709    2.8078    1.7336 H   0  0  0  0  0  0  0  0  0  0  0  0
   -2.5870    4.1294    0.5810 H   0  0  0  0  0  0  0  0  0  0  0  0
   -1.5027    2.7029    0.7080 H   0  0  0  0  0  0  0  0  0  0  0  0
   -2.8293    2.6809   -1.7699 C   0  0  0  0  0  0  0  0  0  0  0  0
   -1.7799    2.3540   -1.8864 H   0  0  0  0  0  0  0  0  0  0  0  0
   -2.8684    3.7787   -1.9279 H   0  0  0  0  0  0  0  0  0  0  0  0
   -3.4313    2.1991   -2.5667 H   0  0  0  0  0  0  0  0  0  0  0  0
   -4.8314    2.8666   -0.2903 C   0  0  0  0  0  0  0  0  0  0  0  0
   -5.4836    2.4331   -1.0755 H   0  0  0  0  0  0  0  0  0  0  0  0
   -4.8218    3.9650   -0.4376 H   0  0  0  0  0  0  0  0  0  0  0  0
   -5.2957    2.6674    0.6970 H   0  0  0  0  0  0  0  0  0  0  0  0
   -5.8331   -2.1014    0.4609 C   0  0  0  0  0  0  0  0  0  0  0  0
   -6.5326   -1.5272    1.7140 C   0  0  0  0  0  0  0  0  0  0  0  0
   -7.5040   -2.0361    1.8838 H   0  0  0  0  0  0  0  0  0  0  0  0
   -6.7360   -0.4425    1.6122 H   0  0  0  0  0  0  0  0  0  0  0  0
   -5.9054   -1.6694    2.6172 H   0  0  0  0  0  0  0  0  0  0  0  0
   -6.7347   -1.8899   -0.7766 C   0  0  0  0  0  0  0  0  0  0  0  0
   -6.2553   -2.2970   -1.6897 H   0  0  0  0  0  0  0  0  0  0  0  0
   -6.9433   -0.8162   -0.9558 H   0  0  0  0  0  0  0  0  0  0  0  0
   -7.7092   -2.4028   -0.6394 H   0  0  0  0  0  0  0  0  0  0  0  0
   -5.6346   -3.6129    0.6650 C   0  0  0  0  0  0  0  0  0  0  0  0
   -5.1556   -4.0879   -0.2149 H   0  0  0  0  0  0  0  0  0  0  0  0
   -6.6164   -4.1049    0.8156 H   0  0  0  0  0  0  0  0  0  0  0  0
   -5.0132   -3.8302    1.5573 H   0  0  0  0  0  0  0  0  0  0  0  0
    2.5124   -0.3727   -0.7353 O   0  5  0  0  0  0  0  0  0  0  0  0
    2.8734   -4.3504    0.5865 O   0  0  0  0  0  0  0  0  0  0  0  0
    2.0694   -3.7435    0.4449 H   0  0  0  0  0  0  0  0  0  0  0  0
  1  2  2  0  0  0  0
  1  8  1  0  0  0  0
  2  3  1  0  0  0  0
  3  4  1  0  0  0  0
  3  5  2  0  0  0  0
  5 38  1  0  0  0  0
  6  5  1  0  0  0  0
  6  7  1  0  0  0  0
  8  9  1  0  0  0  0
  8  6  2  0  0  0  0
  9 10  1  0  0  0  0
 11 12  1  0  0  0  0
 11  9  1  0  0  0  0
 13 14  1  0  0  0  0
 13 12  2  0  0  0  0
 14 23  1  0  0  0  0
 15 17  1  0  0  0  0
 15 14  2  0  0  0  0
 16 15  1  0  0  0  0
 17 19  2  0  0  0  0
 18 17  1  0  0  0  0
 19 20  1  0  0  0  0
 19 21  1  0  0  0  0
 21 22  1  0  0  0  0
 23 21  2  0  0  0  0
 23 52  1  0  0  0  0
 24  1  1  0  0  0  0
 25 34  1  0  0  0  0
 25  2  1  0  0  0  0
 25 26  1  0  0  0  0
 26 27  1  0  0  0  0
 28 26  1  0  0  0  0
 29 26  1  0  0  0  0
 30 25  1  0  0  0  0
 31 30  1  0  0  0  0
 32 30  1  0  0  0  0
 33 30  1  0  0  0  0
 34 37  1  0  0  0  0
 35 34  1  0  0  0  0
 36 34  1  0  0  0  0
 38 47  1  0  0  0  0
 38 39  1  0  0  0  0
 39 40  1  0  0  0  0
 39 42  1  0  0  0  0
 41 39  1  0  0  0  0
 43 46  1  0  0  0  0
 43 38  1  0  0  0  0
 44 43  1  0  0  0  0
 45 43  1  0  0  0  0
 47 49  1  0  0  0  0
 47 50  1  0  0  0  0
 48 47  1  0  0  0  0
 51 13  1  0  0  0  0
 53 52  1  0  0  0  0
M  CHG  2  24  -1  51  -1
M  END
