1,3,4
 OpenBabel05122313063D

 32 33  0  0  0  0  0  0  0  0999 V2000
    0.8999    0.9997    0.0008 N   0  0  0  0  0  2  0  0  0  0  0  0
   -0.4357    1.2802    0.0898 N   0  0  0  0  0  0  0  0  0  0  0  0
    3.1645   -0.5306    0.0728 O   0  5  0  0  0  0  0  0  0  0  0  0
   -0.5909   -0.9883   -0.3540 O   0  5  0  0  0  0  0  0  0  0  0  0
    5.7751   -0.6799    0.0110 O   0  0  0  0  0  0  0  0  0  0  0  0
   -7.3161    0.4081   -0.0151 Br  0  0  0  0  0  0  0  0  0  0  0  0
    3.1711    1.8905    0.0879 C   0  0  0  0  0  0  0  0  0  0  0  0
    3.8224    0.6230    0.0559 C   0  0  0  0  0  0  0  0  0  0  0  0
    5.2523    0.5679    0.0447 C   0  0  0  0  0  0  0  0  0  0  0  0
    5.9922    1.7606    0.0689 C   0  0  0  0  0  0  0  0  0  0  0  0
    7.0898    1.7250    0.0583 H   0  0  0  0  0  0  0  0  0  0  0  0
    5.3401    3.0124    0.1084 C   0  0  0  0  0  0  0  0  0  0  0  0
    5.9413    3.9328    0.1268 H   0  0  0  0  0  0  0  0  0  0  0  0
    3.9524    3.0805    0.1218 C   0  0  0  0  0  0  0  0  0  0  0  0
    3.4367    4.0520    0.1505 H   0  0  0  0  0  0  0  0  0  0  0  0
    1.7355    2.0056    0.1154 C   0  0  0  0  0  3  0  0  0  0  0  0
    1.2912    3.0120    0.2369 H   0  0  0  0  0  0  0  0  0  0  0  0
   -1.1448    0.1866   -0.1312 C   0  0  0  0  0  0  0  0  0  0  0  0
   -2.6177    0.2500   -0.1078 C   0  0  0  0  0  0  0  0  0  0  0  0
   -3.2853    1.4693    0.1437 C   0  0  0  0  0  0  0  0  0  0  0  0
   -2.6859    2.3746    0.3147 H   0  0  0  0  0  0  0  0  0  0  0  0
   -4.6814    1.5204    0.1729 C   0  0  0  0  0  0  0  0  0  0  0  0
   -5.2043    2.4670    0.3682 H   0  0  0  0  0  0  0  0  0  0  0  0
   -5.4177    0.3429   -0.0543 C   0  0  0  0  0  0  0  0  0  0  0  0
   -4.7724   -0.8785   -0.3107 C   0  0  0  0  0  0  0  0  0  0  0  0
   -5.3635   -1.7874   -0.4901 H   0  0  0  0  0  0  0  0  0  0  0  0
   -3.3738   -0.9196   -0.3361 C   0  0  0  0  0  0  0  0  0  0  0  0
   -2.8456   -1.8623   -0.5381 H   0  0  0  0  0  0  0  0  0  0  0  0
    7.1830   -0.8163   -0.0157 C   0  0  0  0  0  0  0  0  0  0  0  0
    7.6277   -0.3355   -0.9160 H   0  0  0  0  0  0  0  0  0  0  0  0
    7.3896   -1.9016   -0.0479 H   0  0  0  0  0  0  0  0  0  0  0  0
    7.6584   -0.3829    0.8931 H   0  0  0  0  0  0  0  0  0  0  0  0
  1  2  1  0  0  0  0
  1 16  1  0  0  0  0
  4 18  1  0  0  0  0
  5  9  1  0  0  0  0
  7 16  1  0  0  0  0
  7 14  1  0  0  0  0
  8  3  1  0  0  0  0
  8  7  2  0  0  0  0
  9  8  1  0  0  0  0
  9 10  2  0  0  0  0
 10 12  1  0  0  0  0
 11 10  1  0  0  0  0
 12 14  2  0  0  0  0
 12 13  1  0  0  0  0
 14 15  1  0  0  0  0
 16 17  1  0  0  0  0
 18 19  1  0  0  0  0
 18  2  2  0  0  0  0
 19 20  1  0  0  0  0
 20 22  2  0  0  0  0
 20 21  1  0  0  0  0
 22 23  1  0  0  0  0
 24  6  1  0  0  0  0
 24 22  1  0  0  0  0
 25 24  2  0  0  0  0
 26 25  1  0  0  0  0
 27 25  1  0  0  0  0
 27 19  2  0  0  0  0
 28 27  1  0  0  0  0
 29  5  1  0  0  0  0
 29 32  1  0  0  0  0
 30 29  1  0  0  0  0
 31 29  1  0  0  0  0
M  CHG  2   3  -1   4  -1
M  END
