1,3,4
 OpenBabel05122313063D

 35 36  0  0  0  0  0  0  0  0999 V2000
    0.8477    0.9428   -0.1211 N   0  0  0  0  0  2  0  0  0  0  0  0
   -0.4864    1.2409   -0.0886 N   0  0  0  0  0  0  0  0  0  0  0  0
    3.1195   -0.5684   -0.0003 O   0  5  0  0  0  0  0  0  0  0  0  0
   -0.6437   -1.0635   -0.1808 O   0  5  0  0  0  0  0  0  0  0  0  0
    5.7315   -0.7112   -0.0200 O   0  0  0  0  0  0  0  0  0  0  0  0
   -7.5666   -0.7103   -0.6394 F   0  0  0  0  0  0  0  0  0  0  0  0
   -7.4185    0.4086    1.2266 F   0  0  0  0  0  0  0  0  0  0  0  0
   -7.4746    1.4742   -0.6739 F   0  0  0  0  0  0  0  0  0  0  0  0
    3.1165    1.8484   -0.0596 C   0  0  0  0  0  0  0  0  0  0  0  0
    3.7736    0.5847   -0.0410 C   0  0  0  0  0  0  0  0  0  0  0  0
    5.2034    0.5346   -0.0365 C   0  0  0  0  0  0  0  0  0  0  0  0
    5.9371    1.7313   -0.0461 C   0  0  0  0  0  0  0  0  0  0  0  0
    7.0349    1.7008   -0.0416 H   0  0  0  0  0  0  0  0  0  0  0  0
    5.2793    2.9808   -0.0586 C   0  0  0  0  0  0  0  0  0  0  0  0
    5.8764    3.9040   -0.0663 H   0  0  0  0  0  0  0  0  0  0  0  0
    3.8913    3.0431   -0.0631 C   0  0  0  0  0  0  0  0  0  0  0  0
    3.3708    4.0123   -0.0750 H   0  0  0  0  0  0  0  0  0  0  0  0
    1.6818    1.9546   -0.0619 C   0  0  0  0  0  3  0  0  0  0  0  0
    1.2309    2.9640   -0.0170 H   0  0  0  0  0  0  0  0  0  0  0  0
   -1.1994    0.1342   -0.1486 C   0  0  0  0  0  0  0  0  0  0  0  0
   -2.6736    0.2022   -0.1463 C   0  0  0  0  0  0  0  0  0  0  0  0
   -3.3368    1.4477   -0.0780 C   0  0  0  0  0  0  0  0  0  0  0  0
   -2.7337    2.3652   -0.0354 H   0  0  0  0  0  0  0  0  0  0  0  0
   -4.7320    1.4987   -0.0702 C   0  0  0  0  0  0  0  0  0  0  0  0
   -5.2516    2.4666   -0.0257 H   0  0  0  0  0  0  0  0  0  0  0  0
   -5.4808    0.3074   -0.1310 C   0  0  0  0  0  0  0  0  0  0  0  0
   -4.8266   -0.9341   -0.2071 C   0  0  0  0  0  0  0  0  0  0  0  0
   -5.4182   -1.8583   -0.2688 H   0  0  0  0  0  0  0  0  0  0  0  0
   -3.4286   -0.9875   -0.2143 C   0  0  0  0  0  0  0  0  0  0  0  0
   -2.8998   -1.9487   -0.2794 H   0  0  0  0  0  0  0  0  0  0  0  0
    7.1406   -0.8421   -0.0259 C   0  0  0  0  0  0  0  0  0  0  0  0
    7.5934   -0.3918   -0.9377 H   0  0  0  0  0  0  0  0  0  0  0  0
    7.3518   -1.9269   -0.0168 H   0  0  0  0  0  0  0  0  0  0  0  0
    7.6033   -0.3743    0.8723 H   0  0  0  0  0  0  0  0  0  0  0  0
   -6.9889    0.3683   -0.0608 C   0  0  0  0  0  0  0  0  0  0  0  0
  1  2  1  0  0  0  0
  1 18  1  0  0  0  0
  4 20  1  0  0  0  0
  6 35  1  0  0  0  0
  8 35  1  0  0  0  0
  9 10  1  0  0  0  0
 10 11  2  0  0  0  0
 10  3  1  0  0  0  0
 11  5  1  0  0  0  0
 12 13  1  0  0  0  0
 12 11  1  0  0  0  0
 14 12  2  0  0  0  0
 15 14  1  0  0  0  0
 16  9  2  0  0  0  0
 16 14  1  0  0  0  0
 17 16  1  0  0  0  0
 18  9  1  0  0  0  0
 18 19  1  0  0  0  0
 20 21  1  0  0  0  0
 20  2  2  0  0  0  0
 21 22  1  0  0  0  0
 22 24  2  0  0  0  0
 22 23  1  0  0  0  0
 24 25  1  0  0  0  0
 26 24  1  0  0  0  0
 26 35  1  0  0  0  0
 27 26  2  0  0  0  0
 28 27  1  0  0  0  0
 29 27  1  0  0  0  0
 29 21  2  0  0  0  0
 30 29  1  0  0  0  0
 31  5  1  0  0  0  0
 31 33  1  0  0  0  0
 31 34  1  0  0  0  0
 32 31  1  0  0  0  0
 35  7  1  0  0  0  0
M  CHG  2   3  -1   4  -1
M  END
