1,2,6
 OpenBabel05122313063D

 29 29  0  0  1  0  0  0  0  0999 V2000
    0.5361    0.2096   -0.6898 O   0  5  0  0  0  0  0  0  0  0  0  0
   -2.9116   -0.8343    0.1028 O   0  5  0  0  0  0  0  0  0  0  0  0
    3.2472   -2.7280    0.6029 O   0  0  0  0  0  0  0  0  0  0  0  0
    2.2315   -2.7014    0.5247 H   0  0  0  0  0  0  0  0  0  0  0  0
    0.8701   -1.8935    0.1285 N   0  0  0  0  0  0  0  0  0  0  0  0
   -0.4831   -1.9308   -0.0115 N   0  0  0  0  0  2  0  0  0  0  0  0
    3.3235    0.7584   -0.6382 C   0  0  0  0  0  0  0  0  0  0  0  0
    2.6133    1.5295   -0.9707 H   0  0  0  0  0  0  0  0  0  0  0  0
    4.6971    0.9985   -0.6137 C   0  0  0  0  0  0  0  0  0  0  0  0
    5.0967    1.9729   -0.9299 H   0  0  0  0  0  0  0  0  0  0  0  0
    5.5681   -0.0235   -0.1796 C   0  0  0  0  0  0  0  0  0  0  0  0
    6.6543    0.1558   -0.1570 H   0  0  0  0  0  0  0  0  0  0  0  0
    5.0738   -1.2651    0.2246 C   0  0  0  0  0  0  0  0  0  0  0  0
    5.7425   -2.0689    0.5650 H   0  0  0  0  0  0  0  0  0  0  0  0
    3.6842   -1.5279    0.2065 C   0  0  0  0  0  0  0  0  0  0  0  0
    2.7966   -0.4912   -0.2359 C   0  0  0  0  0  0  0  0  0  0  0  0
    1.3550   -0.7219   -0.2701 C   0  0  0  0  0  0  0  0  0  0  0  0
   -0.2959   -4.2942    0.5758 C   0  0  0  0  0  0  0  0  0  0  0  0
    0.4831   -4.4666   -0.1943 H   0  0  0  0  0  0  0  0  0  0  0  0
   -0.9336   -5.1915    0.6654 H   0  0  0  0  0  0  0  0  0  0  0  0
    0.2429   -4.1402    1.5340 H   0  0  0  0  0  0  0  0  0  0  0  0
   -1.1121   -3.0778    0.2365 C   0  0  1  0  0  3  0  0  0  0  0  0
   -2.5384   -3.1605    0.2195 C   0  0  0  0  0  0  0  0  0  0  0  0
   -2.9897   -4.1508    0.3610 H   0  0  0  0  0  0  0  0  0  0  0  0
   -3.3777   -2.0549    0.1945 C   0  0  0  0  0  0  0  0  0  0  0  0
   -4.8698   -2.1544    0.3304 C   0  0  0  0  0  0  0  0  0  0  0  0
   -5.2106   -1.5345    1.1850 H   0  0  0  0  0  0  0  0  0  0  0  0
   -5.2033   -3.1975    0.4764 H   0  0  0  0  0  0  0  0  0  0  0  0
   -5.3542   -1.7402   -0.5785 H   0  0  0  0  0  0  0  0  0  0  0  0
  1 17  1  0  0  0  0
  2 25  1  0  0  0  0
  4  3  1  0  0  0  0
  6  5  1  0  0  0  0
  7  9  2  0  0  0  0
  7 16  1  0  0  0  0
  8  7  1  0  0  0  0
  9 11  1  0  0  0  0
 10  9  1  0  0  0  0
 11 12  1  0  0  0  0
 11 13  2  0  0  0  0
 13 14  1  0  0  0  0
 15 13  1  0  0  0  0
 15  3  1  0  0  0  0
 16 15  2  0  0  0  0
 17 16  1  0  0  0  0
 17  5  2  0  0  0  0
 18 20  1  0  0  0  0
 18 21  1  0  0  0  0
 19 18  1  0  0  0  0
 22  6  1  1  0  0  0
 22 18  1  0  0  0  0
 23 22  1  0  0  0  0
 23 24  1  0  0  0  0
 25 23  2  0  0  0  0
 25 26  1  0  0  0  0
 26 28  1  0  0  0  0
 26 27  1  0  0  0  0
 29 26  1  0  0  0  0
M  CHG  2   1  -1   2  -1
M  END
