1,2,3
 OpenBabel05122313063D

 28 29  0  0  1  0  0  0  0  0999 V2000
    1.0862   -0.3922    1.1398 O   0  5  0  0  0  0  0  0  0  0  0  0
   -0.4804    2.5739   -1.4263 O   0  0  0  0  0  1  0  0  0  0  0  0
    1.7438    1.1242   -1.1273 N   0  0  0  0  0  2  0  0  0  0  0  0
    1.6370    2.0777   -2.0939 N   0  0  0  0  0  0  0  0  0  0  0  0
    2.2722   -0.8594    1.0174 C   0  0  0  0  0  0  0  0  0  0  0  0
    2.7189   -1.8111    2.0172 C   0  0  0  0  0  0  0  0  0  0  0  0
    1.9904   -2.0503    2.8058 H   0  0  0  0  0  0  0  0  0  0  0  0
    3.9637   -2.3811    1.9827 C   0  0  0  0  0  0  0  0  0  0  0  0
    4.2660   -3.1019    2.7601 H   0  0  0  0  0  0  0  0  0  0  0  0
    4.9043   -2.0741    0.9427 C   0  0  0  0  0  0  0  0  0  0  0  0
    6.1820   -2.6915    0.9191 C   0  0  0  0  0  0  0  0  0  0  0  0
    6.4309   -3.4025    1.7229 H   0  0  0  0  0  0  0  0  0  0  0  0
    7.1004   -2.4169   -0.0881 C   0  0  0  0  0  0  0  0  0  0  0  0
    8.0874   -2.9026   -0.0963 H   0  0  0  0  0  0  0  0  0  0  0  0
    6.7399   -1.5089   -1.1084 C   0  0  0  0  0  0  0  0  0  0  0  0
    7.4481   -1.2879   -1.9219 H   0  0  0  0  0  0  0  0  0  0  0  0
    5.4911   -0.8917   -1.1050 C   0  0  0  0  0  0  0  0  0  0  0  0
    5.2594   -0.2094   -1.9351 H   0  0  0  0  0  0  0  0  0  0  0  0
    4.5291   -1.1355   -0.0825 C   0  0  0  0  0  0  0  0  0  0  0  0
    3.2131   -0.5025   -0.0326 C   0  0  0  0  0  0  0  0  0  0  0  0
    2.8903    0.4912   -1.0024 C   0  0  0  0  0  3  0  0  0  0  0  0
    3.6902    0.7767   -1.7164 H   0  0  0  0  0  0  0  0  0  0  0  0
    0.4690    2.7841   -2.1977 C   0  0  1  0  0  3  0  0  0  0  0  0
    0.4117    3.8148   -3.2972 C   0  0  0  0  0  0  0  0  0  0  0  0
    1.3506    3.8959   -3.8784 H   0  0  0  0  0  0  0  0  0  0  0  0
    0.1729    4.8010   -2.8530 H   0  0  0  0  0  0  0  0  0  0  0  0
   -0.4187    3.5585   -3.9847 H   0  0  0  0  0  0  0  0  0  0  0  0
    2.4289    2.2540   -2.7243 H   0  0  0  0  0  0  0  0  0  0  0  0
  3 21  1  0  0  0  0
  4  3  1  0  0  0  0
  5  1  1  0  0  0  0
  5  6  1  0  0  0  0
  6  7  1  0  0  0  0
  8  6  2  0  0  0  0
  8  9  1  0  0  0  0
 10  8  1  0  0  0  0
 11 10  1  0  0  0  0
 11 12  1  0  0  0  0
 13 11  2  0  0  0  0
 14 13  1  0  0  0  0
 15 17  2  0  0  0  0
 15 13  1  0  0  0  0
 16 15  1  0  0  0  0
 17 19  1  0  0  0  0
 18 17  1  0  0  0  0
 19 20  1  0  0  0  0
 19 10  2  0  0  0  0
 20  5  2  0  0  0  0
 21 20  1  0  0  0  0
 22 21  1  0  0  0  0
 23  4  1  0  0  0  0
 23  2  1  6  0  0  0
 24 26  1  0  0  0  0
 24 23  1  0  0  0  0
 25 24  1  0  0  0  0
 27 24  1  0  0  0  0
 28  4  1  0  0  0  0
M  CHG  1   1  -1
M  END
