3,5,6
 OpenBabel05122313063D

 31 32  0  0  0  0  0  0  0  0999 V2000
   -3.4141    2.6040   -0.5312 Br  0  0  0  0  0  0  0  0  0  0  0  0
   -6.2326   -2.2583    0.4904 Br  0  0  0  0  0  0  0  0  0  0  0  0
    0.2696   -1.5805   -0.0924 N   0  0  0  0  0  2  0  0  0  0  0  0
    1.3385   -2.3900    0.1242 N   0  0  0  0  0  0  0  0  0  0  0  0
   -1.0356    0.7216   -0.3487 O   0  5  0  0  0  0  0  0  0  0  0  0
    2.4177   -0.5094   -0.6182 O   0  5  0  0  0  0  0  0  0  0  0  0
   -2.1590   -1.3497    0.0638 C   0  0  0  0  0  0  0  0  0  0  0  0
   -2.1568    0.0611   -0.1870 C   0  0  0  0  0  0  0  0  0  0  0  0
   -3.4088    0.7352   -0.2173 C   0  0  0  0  0  0  0  0  0  0  0  0
   -4.6127    0.0523   -0.0201 C   0  0  0  0  0  0  0  0  0  0  0  0
   -5.5645    0.5989   -0.0545 H   0  0  0  0  0  0  0  0  0  0  0  0
   -4.5896   -1.3361    0.2226 C   0  0  0  0  0  0  0  0  0  0  0  0
   -3.3834   -2.0332    0.2717 C   0  0  0  0  0  0  0  0  0  0  0  0
   -3.3723   -3.1146    0.4685 H   0  0  0  0  0  0  0  0  0  0  0  0
   -0.9199   -2.0735    0.1670 C   0  0  0  0  0  3  0  0  0  0  0  0
   -0.9475   -3.1260    0.5029 H   0  0  0  0  0  0  0  0  0  0  0  0
    2.4511   -1.7450   -0.1873 C   0  0  0  0  0  0  0  0  0  0  0  0
    3.7595   -2.4120   -0.0492 C   0  0  0  0  0  0  0  0  0  0  0  0
    4.9347   -1.7116   -0.3939 C   0  0  0  0  0  0  0  0  0  0  0  0
    4.8380   -0.6791   -0.7613 H   0  0  0  0  0  0  0  0  0  0  0  0
    6.1999   -2.3110   -0.2755 C   0  0  0  0  0  0  0  0  0  0  0  0
    6.2660   -3.6376    0.2029 C   0  0  0  0  0  0  0  0  0  0  0  0
    7.2488   -4.1254    0.3056 H   0  0  0  0  0  0  0  0  0  0  0  0
    5.1021   -4.3421    0.5486 C   0  0  0  0  0  0  0  0  0  0  0  0
    5.1784   -5.3755    0.9196 H   0  0  0  0  0  0  0  0  0  0  0  0
    3.8460   -3.7378    0.4250 C   0  0  0  0  0  0  0  0  0  0  0  0
    2.9211   -4.2684    0.6902 H   0  0  0  0  0  0  0  0  0  0  0  0
    7.4558   -1.5679   -0.6581 C   0  0  0  0  0  0  0  0  0  0  0  0
    7.9381   -2.0277   -1.5464 H   0  0  0  0  0  0  0  0  0  0  0  0
    8.2046   -1.5894    0.1602 H   0  0  0  0  0  0  0  0  0  0  0  0
    7.2441   -0.5091   -0.9020 H   0  0  0  0  0  0  0  0  0  0  0  0
  1  9  1  0  0  0  0
  3  4  1  0  0  0  0
  3 15  1  0  0  0  0
  5  8  1  0  0  0  0
  6 17  1  0  0  0  0
  7 15  1  0  0  0  0
  7 13  1  0  0  0  0
  8  7  2  0  0  0  0
  9  8  1  0  0  0  0
  9 10  2  0  0  0  0
 10 12  1  0  0  0  0
 11 10  1  0  0  0  0
 12 13  2  0  0  0  0
 12  2  1  0  0  0  0
 13 14  1  0  0  0  0
 15 16  1  0  0  0  0
 17 18  1  0  0  0  0
 17  4  2  0  0  0  0
 18 26  1  0  0  0  0
 19 21  1  0  0  0  0
 19 18  2  0  0  0  0
 20 19  1  0  0  0  0
 21 22  2  0  0  0  0
 22 23  1  0  0  0  0
 22 24  1  0  0  0  0
 24 25  1  0  0  0  0
 26 24  2  0  0  0  0
 26 27  1  0  0  0  0
 28 21  1  0  0  0  0
 28 30  1  0  0  0  0
 29 28  1  0  0  0  0
 31 28  1  0  0  0  0
M  CHG  2   5  -1   6  -1
M  END
