1,3,6
 OpenBabel05122313063D

 31 31  0  0  0  0  0  0  0  0999 V2000
   -0.6925    2.0604   -0.6976 O   0  5  0  0  0  0  0  0  0  0  0  0
    0.8115    3.6577   -1.2210 O   0  0  0  0  0  0  0  0  0  0  0  0
   -0.8262   -1.6806   -0.5086 O   0  5  0  0  0  0  0  0  0  0  0  0
    0.5342   -3.4206   -0.9778 O   0  0  0  0  0  0  0  0  0  0  0  0
    7.3155    0.1351    0.5070 O   0  0  0  0  0  0  0  0  0  0  0  0
    1.0006    0.1096   -0.8926 N   0  0  0  0  0  0  0  0  0  0  0  0
    1.3531    1.3273   -1.6611 C   0  0  0  0  0  0  0  0  0  0  0  0
    1.1042    1.1524   -2.7274 H   0  0  0  0  0  0  0  0  0  0  0  0
    2.4330    1.5649   -1.5961 H   0  0  0  0  0  0  0  0  0  0  0  0
    0.4807    2.4895   -1.1611 C   0  0  0  0  0  0  0  0  0  0  0  0
    1.2191   -1.1687   -1.6056 C   0  0  0  0  0  0  0  0  0  0  0  0
    2.2794   -1.4898   -1.5758 H   0  0  0  0  0  0  0  0  0  0  0  0
    0.9304   -1.0356   -2.6683 H   0  0  0  0  0  0  0  0  0  0  0  0
    0.2939   -2.2291   -0.9942 C   0  0  0  0  0  0  0  0  0  0  0  0
    1.6212    0.0945    0.4955 C   0  0  0  0  0  0  0  0  0  0  0  0
    1.2054    0.9613    1.0513 H   0  0  0  0  0  0  0  0  0  0  0  0
    1.2025   -0.7964    1.0011 H   0  0  0  0  0  0  0  0  0  0  0  0
    3.1244    0.0734    0.5099 C   0  0  0  0  0  0  0  0  0  0  0  0
    3.8634    1.2796    0.5348 C   0  0  0  0  0  0  0  0  0  0  0  0
    3.3292    2.2426    0.5695 H   0  0  0  0  0  0  0  0  0  0  0  0
    5.2580    1.2703    0.5306 C   0  0  0  0  0  0  0  0  0  0  0  0
    5.8380    2.2039    0.5541 H   0  0  0  0  0  0  0  0  0  0  0  0
    5.9617    0.0444    0.5100 C   0  0  0  0  0  0  0  0  0  0  0  0
    5.2407   -1.1688    0.5054 C   0  0  0  0  0  0  0  0  0  0  0  0
    5.7594   -2.1364    0.5095 H   0  0  0  0  0  0  0  0  0  0  0  0
    3.8379   -1.1404    0.5076 C   0  0  0  0  0  0  0  0  0  0  0  0
    3.2865   -2.0949    0.5215 H   0  0  0  0  0  0  0  0  0  0  0  0
    8.0749   -1.0607    0.4987 C   0  0  0  0  0  0  0  0  0  0  0  0
    7.8715   -1.6740   -0.4075 H   0  0  0  0  0  0  0  0  0  0  0  0
    9.1374   -0.7556    0.4953 H   0  0  0  0  0  0  0  0  0  0  0  0
    7.8796   -1.6811    1.4017 H   0  0  0  0  0  0  0  0  0  0  0  0
  2 10  2  0  0  0  0
  5 23  1  0  0  0  0
  6 15  1  0  0  0  0
  7  9  1  0  0  0  0
  7 10  1  0  0  0  0
  7  6  1  0  0  0  0
  8  7  1  0  0  0  0
 10  1  1  0  0  0  0
 11 12  1  0  0  0  0
 11 14  1  0  0  0  0
 11  6  1  0  0  0  0
 13 11  1  0  0  0  0
 14  4  2  0  0  0  0
 14  3  1  0  0  0  0
 15 18  1  0  0  0  0
 15 17  1  0  0  0  0
 15 16  1  0  0  0  0
 18 19  1  0  0  0  0
 19 20  1  0  0  0  0
 21 19  2  0  0  0  0
 21 22  1  0  0  0  0
 23 21  1  0  0  0  0
 24 26  1  0  0  0  0
 24 25  1  0  0  0  0
 24 23  2  0  0  0  0
 26 18  2  0  0  0  0
 26 27  1  0  0  0  0
 28  5  1  0  0  0  0
 28 31  1  0  0  0  0
 29 28  1  0  0  0  0
 30 28  1  0  0  0  0
M  CHG  2   1  -1   3  -1
M  END
