1,2,6
 OpenBabel05122313063D

 37 38  0  0  1  0  0  0  0  0999 V2000
    2.1699    0.2508   -0.4066 O   0  5  0  0  0  0  0  0  0  0  0  0
   -1.4141    0.3399   -0.3682 O   0  5  0  0  0  0  0  0  0  0  0  0
   -4.1677    2.3006   -0.1521 O   0  0  0  0  0  0  0  0  0  0  0  0
   -3.1805    1.2929    1.5251 O   0  0  0  0  0  0  0  0  0  0  0  0
   -1.0806   -1.8786    0.0957 N   0  0  0  0  0  0  0  0  0  0  0  0
    0.1980   -1.4194    0.1562 N   0  0  0  0  0  2  0  0  0  0  0  0
   -3.8199    1.3021    0.4768 N   0  0  0  0  0  0  0  0  0  0  0  0
    3.0050   -0.6976   -0.0370 C   0  0  0  0  0  0  0  0  0  0  0  0
    2.5340   -1.9370    0.3903 C   0  0  0  0  0  0  0  0  0  0  0  0
    3.2602   -2.7079    0.6725 H   0  0  0  0  0  0  0  0  0  0  0  0
    1.1610   -2.3129    0.4017 C   0  0  2  0  0  3  0  0  0  0  0  0
    0.7781   -3.7398    0.6807 C   0  0  0  0  0  0  0  0  0  0  0  0
    1.6611   -4.3477    0.9478 H   0  0  0  0  0  0  0  0  0  0  0  0
    0.0278   -3.7805    1.4949 H   0  0  0  0  0  0  0  0  0  0  0  0
    0.2828   -4.1828   -0.2070 H   0  0  0  0  0  0  0  0  0  0  0  0
    4.4414   -0.3527   -0.1447 C   0  0  0  0  0  0  0  0  0  0  0  0
    5.4692   -1.3131    0.0029 C   0  0  0  0  0  0  0  0  0  0  0  0
    5.2205   -2.3681    0.1860 H   0  0  0  0  0  0  0  0  0  0  0  0
    6.8131   -0.9375   -0.0998 C   0  0  0  0  0  0  0  0  0  0  0  0
    7.6007   -1.6973    0.0149 H   0  0  0  0  0  0  0  0  0  0  0  0
    7.1574    0.4011   -0.3549 C   0  0  0  0  0  0  0  0  0  0  0  0
    8.2155    0.6929   -0.4353 H   0  0  0  0  0  0  0  0  0  0  0  0
    6.1454    1.3621   -0.5090 C   0  0  0  0  0  0  0  0  0  0  0  0
    6.4074    2.4121   -0.7085 H   0  0  0  0  0  0  0  0  0  0  0  0
    4.7997    0.9905   -0.4064 C   0  0  0  0  0  0  0  0  0  0  0  0
    3.9990    1.7344   -0.5204 H   0  0  0  0  0  0  0  0  0  0  0  0
   -1.8851   -0.8611   -0.1426 C   0  0  0  0  0  0  0  0  0  0  0  0
   -3.3453   -1.0677   -0.2288 C   0  0  0  0  0  0  0  0  0  0  0  0
   -3.8659   -2.3270   -0.5938 C   0  0  0  0  0  0  0  0  0  0  0  0
   -3.1515   -3.1481   -0.7477 H   0  0  0  0  0  0  0  0  0  0  0  0
   -5.2410   -2.5133   -0.7782 C   0  0  0  0  0  0  0  0  0  0  0  0
   -5.6234   -3.5051   -1.0615 H   0  0  0  0  0  0  0  0  0  0  0  0
   -6.1287   -1.4341   -0.6255 C   0  0  0  0  0  0  0  0  0  0  0  0
   -7.2078   -1.5731   -0.7868 H   0  0  0  0  0  0  0  0  0  0  0  0
   -5.6373   -0.1731   -0.2631 C   0  0  0  0  0  0  0  0  0  0  0  0
   -6.3044    0.6901   -0.1304 H   0  0  0  0  0  0  0  0  0  0  0  0
   -4.2648   -0.0114   -0.0415 C   0  0  0  0  0  0  0  0  0  0  0  0
  1  8  1  0  0  0  0
  2 27  1  0  0  0  0
  3  7  2  0  0  0  0
  5  6  1  0  0  0  0
  7  4  2  0  0  0  0
  8  9  2  0  0  0  0
  9 11  1  0  0  0  0
  9 10  1  0  0  0  0
 11  6  1  6  0  0  0
 11 12  1  0  0  0  0
 12 13  1  0  0  0  0
 12 14  1  0  0  0  0
 15 12  1  0  0  0  0
 16  8  1  0  0  0  0
 16 17  1  0  0  0  0
 17 18  1  0  0  0  0
 19 17  2  0  0  0  0
 19 20  1  0  0  0  0
 21 19  1  0  0  0  0
 22 21  1  0  0  0  0
 23 25  1  0  0  0  0
 23 21  2  0  0  0  0
 24 23  1  0  0  0  0
 25 16  2  0  0  0  0
 26 25  1  0  0  0  0
 27  5  2  0  0  0  0
 28 27  1  0  0  0  0
 28 37  1  0  0  0  0
 29 28  2  0  0  0  0
 30 29  1  0  0  0  0
 31 33  2  0  0  0  0
 31 29  1  0  0  0  0
 32 31  1  0  0  0  0
 33 35  1  0  0  0  0
 34 33  1  0  0  0  0
 35 36  1  0  0  0  0
 35 37  2  0  0  0  0
 37  7  1  0  0  0  0
M  CHG  2   1  -1   2  -1
M  END
