3,5,6
 OpenBabel05122313063D

 26 26  0  0  0  0  0  0  0  0999 V2000
    1.0535    0.8056   -0.1644 O   0  0  0  0  0  0  0  0  0  0  0  0
    0.1484    4.2207   -0.6480 O   0  5  0  0  0  0  0  0  0  0  0  0
   -1.1019    2.3417   -0.5104 O   0  0  0  0  0  0  0  0  0  0  0  0
   -3.8843   -2.4716    0.2750 O   0  5  0  0  0  0  0  0  0  0  0  0
   -2.9330   -0.4170    0.3976 O   0  0  0  0  0  0  0  0  0  0  0  0
   -0.6606   -1.3591   -0.7153 N   0  0  0  0  0  2  0  0  0  0  0  0
    2.0661   -0.0897   -0.0057 C   0  0  0  0  0  0  0  0  0  0  0  0
    1.7595   -1.4726   -0.2043 C   0  0  0  0  0  0  0  0  0  0  0  0
    2.8101   -2.4115   -0.0496 C   0  0  0  0  0  0  0  0  0  0  0  0
    4.1083   -2.0230    0.2860 C   0  0  0  0  0  0  0  0  0  0  0  0
    4.3847   -0.6593    0.4720 C   0  0  0  0  0  0  0  0  0  0  0  0
    3.3752    0.3028    0.3262 C   0  0  0  0  0  0  0  0  0  0  0  0
    1.3111    2.2259   -0.1798 C   0  0  0  0  0  0  0  0  0  0  0  0
    0.0134    3.0170   -0.4838 C   0  0  0  0  0  0  0  0  0  0  0  0
    0.4562   -2.0062   -0.5748 C   0  0  0  0  0  3  0  0  0  0  0  0
   -1.8872   -2.0730   -1.0089 C   0  0  0  0  0  0  0  0  0  0  0  0
   -3.0222   -1.6564   -0.0095 C   0  0  0  0  0  0  0  0  0  0  0  0
    2.5779   -3.4767   -0.2048 H   0  0  0  0  0  0  0  0  0  0  0  0
    4.9016   -2.7752    0.3989 H   0  0  0  0  0  0  0  0  0  0  0  0
    5.4018   -0.3314    0.7339 H   0  0  0  0  0  0  0  0  0  0  0  0
    3.6099    1.3642    0.4743 H   0  0  0  0  0  0  0  0  0  0  0  0
    2.0651    2.4611   -0.9581 H   0  0  0  0  0  0  0  0  0  0  0  0
    1.7023    2.5546    0.8070 H   0  0  0  0  0  0  0  0  0  0  0  0
    0.4463   -3.1047   -0.7489 H   0  0  0  0  0  0  0  0  0  0  0  0
   -1.7649   -3.1760   -0.9950 H   0  0  0  0  0  0  0  0  0  0  0  0
   -2.2454   -1.7728   -2.0194 H   0  0  0  0  0  0  0  0  0  0  0  0
  1  7  1  0  0  0  0
  2 14  1  0  0  0  0
  3 14  2  0  0  0  0
  6 15  1  0  0  0  0
  7 12  1  0  0  0  0
  8  9  1  0  0  0  0
  8  7  2  0  0  0  0
  9 10  2  0  0  0  0
 10 19  1  0  0  0  0
 10 11  1  0  0  0  0
 11 20  1  0  0  0  0
 12 11  2  0  0  0  0
 12 21  1  0  0  0  0
 13  1  1  0  0  0  0
 13 23  1  0  0  0  0
 14 13  1  0  0  0  0
 15  8  1  0  0  0  0
 16 25  1  0  0  0  0
 16  6  1  0  0  0  0
 16 17  1  0  0  0  0
 17  4  1  0  0  0  0
 17  5  2  0  0  0  0
 18  9  1  0  0  0  0
 22 13  1  0  0  0  0
 24 15  1  0  0  0  0
 26 16  1  0  0  0  0
M  CHG  2   2  -1   4  -1
M  END
