3,4,8
 OpenBabel05122313063D

 66 68  0  0  1  0  0  0  0  0999 V2000
    2.9451    6.2128   -0.6977 F   0  0  0  0  0  0  0  0  0  0  0  0
    6.3833    0.9463    0.0997 O   0  0  0  0  0  0  0  0  0  0  0  0
    0.9992   -2.6742    0.1383 O   0  5  0  0  0  0  0  0  0  0  0  0
   -2.2898   -1.0465    0.0471 O   0  0  0  0  0  1  0  0  0  0  0  0
    4.2545    0.0223    0.0983 N   0  0  0  0  0  0  0  0  0  0  0  0
    3.2362    0.2504    0.1543 H   0  0  0  0  0  0  0  0  0  0  0  0
    1.6645   -0.4871    0.2453 N   0  0  0  0  0  0  0  0  0  0  0  0
    0.3047   -0.3095    0.2074 N   0  0  0  0  0  2  0  0  0  0  0  0
    3.2128    2.5853   -0.7040 C   0  0  0  0  0  0  0  0  0  0  0  0
    2.6099    1.7121   -0.9949 H   0  0  0  0  0  0  0  0  0  0  0  0
    2.6757    3.8674   -0.8798 C   0  0  0  0  0  0  0  0  0  0  0  0
    1.6669    4.0202   -1.2904 H   0  0  0  0  0  0  0  0  0  0  0  0
    3.4559    4.9792   -0.5361 C   0  0  0  0  0  0  0  0  0  0  0  0
    4.7588    4.8380   -0.0384 C   0  0  0  0  0  0  0  0  0  0  0  0
    5.3402    5.7375    0.2097 H   0  0  0  0  0  0  0  0  0  0  0  0
    5.2830    3.5515    0.1250 C   0  0  0  0  0  0  0  0  0  0  0  0
    6.3059    3.3956    0.4983 H   0  0  0  0  0  0  0  0  0  0  0  0
    4.5142    2.4115   -0.1861 C   0  0  0  0  0  0  0  0  0  0  0  0
    5.1588    1.0633    0.0141 C   0  0  0  0  0  0  0  0  0  0  0  0
    4.4906   -1.3469    0.1947 C   0  0  0  0  0  0  0  0  0  0  0  0
    5.7978   -1.8891    0.2278 C   0  0  0  0  0  0  0  0  0  0  0  0
    6.6409   -1.1895    0.1905 H   0  0  0  0  0  0  0  0  0  0  0  0
    5.9920   -3.2708    0.3136 C   0  0  0  0  0  0  0  0  0  0  0  0
    7.0196   -3.6651    0.3399 H   0  0  0  0  0  0  0  0  0  0  0  0
    4.8971   -4.1507    0.3719 C   0  0  0  0  0  0  0  0  0  0  0  0
    5.0549   -5.2368    0.4470 H   0  0  0  0  0  0  0  0  0  0  0  0
    3.6027   -3.6281    0.3379 C   0  0  0  0  0  0  0  0  0  0  0  0
    2.7263   -4.2889    0.3892 H   0  0  0  0  0  0  0  0  0  0  0  0
    3.3650   -2.2387    0.2477 C   0  0  0  0  0  0  0  0  0  0  0  0
    1.9610   -1.7821    0.2056 C   0  0  0  0  0  0  0  0  0  0  0  0
   -0.1839    0.9177    0.2637 C   0  0  0  0  0  0  0  0  0  0  0  0
    0.5591    1.7292    0.3561 H   0  0  0  0  0  0  0  0  0  0  0  0
   -1.5694    1.2506    0.2091 C   0  0  0  0  0  0  0  0  0  0  0  0
   -1.9394    2.6258    0.2624 C   0  0  0  0  0  0  0  0  0  0  0  0
   -1.1299    3.3643    0.3520 H   0  0  0  0  0  0  0  0  0  0  0  0
   -3.2676    3.0251    0.2032 C   0  0  0  0  0  0  0  0  0  0  0  0
   -3.7128    4.4960    0.2531 C   0  0  0  0  0  0  0  0  0  0  0  0
   -2.5164    5.4546    0.3770 C   0  0  0  0  0  0  0  0  0  0  0  0
   -1.9357    5.2706    1.3034 H   0  0  0  0  0  0  0  0  0  0  0  0
   -2.8740    6.5034    0.4099 H   0  0  0  0  0  0  0  0  0  0  0  0
   -1.8262    5.3651   -0.4863 H   0  0  0  0  0  0  0  0  0  0  0  0
   -4.6370    4.7099    1.4736 C   0  0  0  0  0  0  0  0  0  0  0  0
   -5.5378    4.0659    1.4255 H   0  0  0  0  0  0  0  0  0  0  0  0
   -4.9802    5.7643    1.5230 H   0  0  0  0  0  0  0  0  0  0  0  0
   -4.1050    4.4747    2.4175 H   0  0  0  0  0  0  0  0  0  0  0  0
   -4.4823    4.8418   -1.0421 C   0  0  0  0  0  0  0  0  0  0  0  0
   -3.8377    4.7021   -1.9333 H   0  0  0  0  0  0  0  0  0  0  0  0
   -4.8230    5.8980   -1.0233 H   0  0  0  0  0  0  0  0  0  0  0  0
   -5.3785    4.2026   -1.1716 H   0  0  0  0  0  0  0  0  0  0  0  0
   -4.2485    1.9980    0.0892 C   0  0  0  0  0  0  0  0  0  0  0  0
   -5.3019    2.3048    0.0422 H   0  0  0  0  0  0  0  0  0  0  0  0
   -3.9644    0.6331    0.0334 C   0  0  0  0  0  0  0  0  0  0  0  0
   -5.0740   -0.4289   -0.0907 C   0  0  0  0  0  0  0  0  0  0  0  0
   -6.4739    0.2090   -0.1402 C   0  0  0  0  0  0  0  0  0  0  0  0
   -6.7016    0.7865    0.7789 H   0  0  0  0  0  0  0  0  0  0  0  0
   -7.2390   -0.5884   -0.2293 H   0  0  0  0  0  0  0  0  0  0  0  0
   -6.5942    0.8837   -1.0121 H   0  0  0  0  0  0  0  0  0  0  0  0
   -4.8757   -1.2421   -1.3928 C   0  0  0  0  0  0  0  0  0  0  0  0
   -4.9232   -0.5789   -2.2807 H   0  0  0  0  0  0  0  0  0  0  0  0
   -5.6796   -2.0019   -1.4916 H   0  0  0  0  0  0  0  0  0  0  0  0
   -3.8987   -1.7592   -1.3914 H   0  0  0  0  0  0  0  0  0  0  0  0
   -5.0277   -1.3798    1.1299 C   0  0  0  0  0  0  0  0  0  0  0  0
   -4.0534   -1.8990    1.1904 H   0  0  0  0  0  0  0  0  0  0  0  0
   -5.8322   -2.1410    1.0483 H   0  0  0  0  0  0  0  0  0  0  0  0
   -5.1863   -0.8170    2.0723 H   0  0  0  0  0  0  0  0  0  0  0  0
   -2.5803    0.2313    0.0953 C   0  0  2  0  0  3  0  0  0  0  0  0
  1 13  1  0  0  0  0
  3 30  1  0  0  0  0
  5  6  1  0  0  0  0
  5 20  1  0  0  0  0
  8  7  1  0  0  0  0
  8 31  1  0  0  0  0
  9 18  1  0  0  0  0
 10  9  1  0  0  0  0
 11  9  2  0  0  0  0
 11 13  1  0  0  0  0
 12 11  1  0  0  0  0
 13 14  2  0  0  0  0
 14 16  1  0  0  0  0
 14 15  1  0  0  0  0
 16 17  1  0  0  0  0
 18 19  1  0  0  0  0
 18 16  2  0  0  0  0
 19  5  1  0  0  0  0
 19  2  2  0  0  0  0
 20 21  2  0  0  0  0
 20 29  1  0  0  0  0
 21 23  1  0  0  0  0
 22 21  1  0  0  0  0
 23 24  1  0  0  0  0
 23 25  2  0  0  0  0
 25 26  1  0  0  0  0
 27 25  1  0  0  0  0
 27 28  1  0  0  0  0
 29 27  2  0  0  0  0
 30  7  2  0  0  0  0
 30 29  1  0  0  0  0
 31 32  1  0  0  0  0
 33 34  1  0  0  0  0
 33 31  2  0  0  0  0
 34 35  1  0  0  0  0
 36 37  1  0  0  0  0
 36 34  2  0  0  0  0
 37 38  1  0  0  0  0
 37 42  1  0  0  0  0
 38 40  1  0  0  0  0
 38 39  1  0  0  0  0
 41 38  1  0  0  0  0
 42 44  1  0  0  0  0
 42 45  1  0  0  0  0
 43 42  1  0  0  0  0
 46 48  1  0  0  0  0
 46 37  1  0  0  0  0
 47 46  1  0  0  0  0
 49 46  1  0  0  0  0
 50 36  1  0  0  0  0
 51 50  1  0  0  0  0
 52 50  2  0  0  0  0
 52 66  1  0  0  0  0
 53 52  1  0  0  0  0
 53 62  1  0  0  0  0
 54 53  1  0  0  0  0
 54 55  1  0  0  0  0
 56 54  1  0  0  0  0
 57 54  1  0  0  0  0
 58 61  1  0  0  0  0
 58 53  1  0  0  0  0
 59 58  1  0  0  0  0
 60 58  1  0  0  0  0
 62 63  1  0  0  0  0
 62 65  1  0  0  0  0
 64 62  1  0  0  0  0
 66  4  1  1  0  0  0
 66 33  1  0  0  0  0
M  CHG  1   3  -1
M  END
