1,2,3
 OpenBabel05122313063D

 29 30  0  0  0  0  0  0  0  0999 V2000
    1.9526    0.8269   -0.1729 O   0  5  0  0  0  0  0  0  0  0  0  0
   -1.6090    0.5856   -0.3597 O   0  5  0  0  0  0  0  0  0  0  0  0
    0.4035   -1.0694    0.0305 N   0  0  0  0  0  2  0  0  0  0  0  0
    4.4895   -1.7301   -0.1224 O   0  0  0  0  0  0  0  0  0  0  0  0
    1.7010   -1.4644   -0.0436 N   0  0  0  0  0  0  0  0  0  0  0  0
   -4.2067    1.0701   -0.4388 O   0  0  0  0  0  0  0  0  0  0  0  0
   -0.5166   -2.0071    0.0787 C   0  0  0  0  0  3  0  0  0  0  0  0
   -0.1582   -3.0528    0.1097 H   0  0  0  0  0  0  0  0  0  0  0  0
    3.9086   -0.4924   -0.1721 C   0  0  0  0  0  0  0  0  0  0  0  0
   -2.4248   -0.4379   -0.1555 C   0  0  0  0  0  0  0  0  0  0  0  0
   -3.8375   -0.2141   -0.2095 C   0  0  0  0  0  0  0  0  0  0  0  0
    2.4608   -0.3840   -0.1191 C   0  0  0  0  0  0  0  0  0  0  0  0
   -1.9312   -1.7548    0.0760 C   0  0  0  0  0  0  0  0  0  0  0  0
    5.8316   -1.5435   -0.1848 C   0  0  0  0  0  0  0  0  0  0  0  0
    6.4404   -2.4531   -0.1560 H   0  0  0  0  0  0  0  0  0  0  0  0
   -2.8471   -2.8312    0.2434 C   0  0  0  0  0  0  0  0  0  0  0  0
   -2.4521   -3.8434    0.4163 H   0  0  0  0  0  0  0  0  0  0  0  0
    4.8855    0.4864   -0.2663 C   0  0  0  0  0  0  0  0  0  0  0  0
    4.6992    1.5634   -0.3218 H   0  0  0  0  0  0  0  0  0  0  0  0
   -5.5881    1.3628   -0.5084 C   0  0  0  0  0  0  0  0  0  0  0  0
   -6.0882    0.8101   -1.3357 H   0  0  0  0  0  0  0  0  0  0  0  0
   -5.6680    2.4486   -0.7011 H   0  0  0  0  0  0  0  0  0  0  0  0
   -6.1112    1.1249    0.4455 H   0  0  0  0  0  0  0  0  0  0  0  0
   -4.7140   -1.2946   -0.0305 C   0  0  0  0  0  0  0  0  0  0  0  0
   -5.7996   -1.1323   -0.0647 H   0  0  0  0  0  0  0  0  0  0  0  0
   -4.2158   -2.5979    0.1961 C   0  0  0  0  0  0  0  0  0  0  0  0
   -4.9248   -3.4271    0.3342 H   0  0  0  0  0  0  0  0  0  0  0  0
    6.1372   -0.2006   -0.2740 C   0  0  0  0  0  0  0  0  0  0  0  0
    7.1392    0.2372   -0.3374 H   0  0  0  0  0  0  0  0  0  0  0  0
  1 12  1  0  0  0  0
  2 10  1  0  0  0  0
  3  7  1  0  0  0  0
  5  3  1  0  0  0  0
  6 11  1  0  0  0  0
  7  8  1  0  0  0  0
  9  4  1  0  0  0  0
  9 12  1  0  0  0  0
 10 13  1  0  0  0  0
 11 10  2  0  0  0  0
 11 24  1  0  0  0  0
 12  5  2  0  0  0  0
 13  7  1  0  0  0  0
 13 16  2  0  0  0  0
 14 15  1  0  0  0  0
 14  4  1  0  0  0  0
 16 17  1  0  0  0  0
 18  9  2  0  0  0  0
 19 18  1  0  0  0  0
 20  6  1  0  0  0  0
 20 23  1  0  0  0  0
 21 20  1  0  0  0  0
 22 20  1  0  0  0  0
 24 26  2  0  0  0  0
 25 24  1  0  0  0  0
 26 16  1  0  0  0  0
 26 27  1  0  0  0  0
 28 18  1  0  0  0  0
 28 14  2  0  0  0  0
 29 28  1  0  0  0  0
M  CHG  2   1  -1   2  -1
M  END
