1,2,5
 OpenBabel05122313063D

 33 34  0  0  1  0  0  0  0  0999 V2000
   -2.8955    1.9941    0.1300 O   0  5  0  0  0  0  0  0  0  0  0  0
   -1.3105    0.0758    0.0209 N   0  0  0  0  0  2  0  0  0  0  0  0
   -0.9727   -3.4162   -0.2544 O   0  5  0  0  0  0  0  0  0  0  0  0
    2.8073    0.3388    0.0814 O   0  0  0  0  0  0  0  0  0  0  0  0
   -2.7231   -1.9760   -0.1336 O   0  0  0  0  0  0  0  0  0  0  0  0
    0.8043   -1.0540   -0.0472 C   0  0  0  0  0  0  0  0  0  0  0  0
    1.3068   -2.0275   -0.1177 H   0  0  0  0  0  0  0  0  0  0  0  0
   -1.4553   -2.2909   -0.1637 C   0  0  0  0  0  0  0  0  0  0  0  0
   -1.2904    3.5877    0.3033 O   0  0  0  0  0  0  0  0  0  0  0  0
   -0.5919   -1.0534   -0.0599 C   0  0  2  0  0  3  0  0  0  0  0  0
    1.4719    0.1893    0.0564 C   0  0  0  0  0  0  0  0  0  0  0  0
    5.0854   -0.4137   -0.0208 C   0  0  0  0  0  0  0  0  0  0  0  0
   -1.6609    2.4233    0.1986 C   0  0  0  0  0  0  0  0  0  0  0  0
    0.6979    1.3733    0.1431 C   0  0  0  0  0  0  0  0  0  0  0  0
    1.1647    2.3643    0.2279 H   0  0  0  0  0  0  0  0  0  0  0  0
   -0.6884    1.2671    0.1203 C   0  0  0  0  0  0  0  0  0  0  0  0
    7.8502    0.2708   -0.0841 C   0  0  0  0  0  0  0  0  0  0  0  0
    3.6353   -0.8234   -0.0272 C   0  0  0  0  0  0  0  0  0  0  0  0
    3.3853   -1.3611   -0.9724 H   0  0  0  0  0  0  0  0  0  0  0  0
    3.4222   -1.5217    0.8131 H   0  0  0  0  0  0  0  0  0  0  0  0
    9.2640    0.6734   -0.1348 C   0  0  0  0  0  0  0  0  0  0  0  0
    9.4339    1.7063   -0.4870 H   0  0  0  0  0  0  0  0  0  0  0  0
    7.4237   -1.0064    0.3528 C   0  0  0  0  0  0  0  0  0  0  0  0
    8.1659   -1.7491    0.6805 H   0  0  0  0  0  0  0  0  0  0  0  0
   10.3407   -0.0714    0.1946 C   0  0  0  0  0  0  0  0  0  0  0  0
   10.2552   -1.1096    0.5527 H   0  0  0  0  0  0  0  0  0  0  0  0
   11.3576    0.3403    0.1149 H   0  0  0  0  0  0  0  0  0  0  0  0
    5.4945    0.8588   -0.4555 C   0  0  0  0  0  0  0  0  0  0  0  0
    4.7378    1.5940   -0.7636 H   0  0  0  0  0  0  0  0  0  0  0  0
    6.8543    1.1918   -0.4815 C   0  0  0  0  0  0  0  0  0  0  0  0
    7.1598    2.1948   -0.8190 H   0  0  0  0  0  0  0  0  0  0  0  0
    6.0679   -1.3389    0.3882 C   0  0  0  0  0  0  0  0  0  0  0  0
    5.7638   -2.3366    0.7436 H   0  0  0  0  0  0  0  0  0  0  0  0
  1 13  1  0  0  0  0
  2 16  1  0  0  0  0
  3  8  1  0  0  0  0
  6 11  2  0  0  0  0
  7  6  1  0  0  0  0
  8  5  2  0  0  0  0
 10  8  1  6  0  0  0
 10  6  1  0  0  0  0
 10  2  1  0  0  0  0
 11  4  1  0  0  0  0
 11 14  1  0  0  0  0
 12 32  1  0  0  0  0
 13  9  2  0  0  0  0
 14 15  1  0  0  0  0
 16 14  2  0  0  0  0
 16 13  1  0  0  0  0
 17 23  1  0  0  0  0
 18 12  1  0  0  0  0
 18  4  1  0  0  0  0
 18 20  1  0  0  0  0
 19 18  1  0  0  0  0
 21 17  1  0  0  0  0
 21 25  2  0  0  0  0
 22 21  1  0  0  0  0
 23 32  2  0  0  0  0
 23 24  1  0  0  0  0
 25 26  1  0  0  0  0
 27 25  1  0  0  0  0
 28 12  2  0  0  0  0
 29 28  1  0  0  0  0
 30 28  1  0  0  0  0
 30 17  2  0  0  0  0
 31 30  1  0  0  0  0
 32 33  1  0  0  0  0
M  CHG  2   1  -1   3  -1
M  END
