4,7,10
 OpenBabel05122313063D

 29 30  0  0  0  0  0  0  0  0999 V2000
   -0.9353   -1.3662   -0.1843 N   0  0  0  0  0  0  0  0  0  0  0  0
    4.9183   -2.6394    0.5920 C   0  0  0  0  0  0  0  0  0  0  0  0
    5.5720   -3.4250    0.9976 H   0  0  0  0  0  0  0  0  0  0  0  0
    2.5484    0.3252   -1.0729 O   0  5  0  0  0  0  0  0  0  0  0  0
   -7.2626   -0.6598    0.3950 O   0  0  0  0  0  0  0  0  0  0  0  0
   -7.6889    0.2097    0.2724 H   0  0  0  0  0  0  0  0  0  0  0  0
    0.3546   -1.0634   -0.0933 N   0  0  0  0  0  2  0  0  0  0  0  0
    3.2495   -0.5834   -0.4744 C   0  0  0  0  0  0  0  0  0  0  0  0
   -1.6810   -0.2381   -0.3058 C   0  0  0  0  0  0  0  0  0  0  0  0
   -1.1566    0.9031   -0.5911 O   0  5  0  0  0  0  0  0  0  0  0  0
    2.6726   -1.7985    0.0892 C   0  0  0  0  0  0  0  0  0  0  0  0
   -3.7477   -1.5909    0.1806 C   0  0  0  0  0  0  0  0  0  0  0  0
   -3.1139   -2.4831    0.2802 H   0  0  0  0  0  0  0  0  0  0  0  0
   -3.1356   -0.3526   -0.1337 C   0  0  0  0  0  0  0  0  0  0  0  0
    5.4809   -1.4369    0.0864 C   0  0  0  0  0  0  0  0  0  0  0  0
    6.5736   -1.3036    0.0925 H   0  0  0  0  0  0  0  0  0  0  0  0
   -5.9278   -0.5220    0.2176 C   0  0  0  0  0  0  0  0  0  0  0  0
    1.2638   -1.9895    0.1728 C   0  0  0  0  0  3  0  0  0  0  0  0
    0.8716   -2.9594    0.5291 H   0  0  0  0  0  0  0  0  0  0  0  0
    3.5400   -2.8075    0.5954 C   0  0  0  0  0  0  0  0  0  0  0  0
    3.0938   -3.7252    1.0090 H   0  0  0  0  0  0  0  0  0  0  0  0
   -5.1267   -1.6784    0.3526 C   0  0  0  0  0  0  0  0  0  0  0  0
   -5.6162   -2.6330    0.5925 H   0  0  0  0  0  0  0  0  0  0  0  0
    4.6719   -0.4240   -0.4062 C   0  0  0  0  0  0  0  0  0  0  0  0
    5.0861    0.5114   -0.8080 H   0  0  0  0  0  0  0  0  0  0  0  0
   -5.3251    0.7174   -0.0954 C   0  0  0  0  0  0  0  0  0  0  0  0
   -5.9516    1.6181   -0.2025 H   0  0  0  0  0  0  0  0  0  0  0  0
   -3.9441    0.7980   -0.2708 C   0  0  0  0  0  0  0  0  0  0  0  0
   -3.4613    1.7551   -0.5144 H   0  0  0  0  0  0  0  0  0  0  0  0
  1  7  1  0  0  0  0
  2 20  1  0  0  0  0
  2  3  1  0  0  0  0
  4  8  1  0  0  0  0
  6  5  1  0  0  0  0
  7 18  1  0  0  0  0
  8 24  2  0  0  0  0
  8 11  1  0  0  0  0
  9  1  2  0  0  0  0
  9 14  1  0  0  0  0
 10  9  1  0  0  0  0
 11 18  1  0  0  0  0
 11 20  2  0  0  0  0
 12 13  1  0  0  0  0
 12 22  1  0  0  0  0
 14 12  2  0  0  0  0
 15 16  1  0  0  0  0
 15  2  2  0  0  0  0
 17 22  2  0  0  0  0
 17  5  1  0  0  0  0
 18 19  1  0  0  0  0
 20 21  1  0  0  0  0
 22 23  1  0  0  0  0
 24 15  1  0  0  0  0
 25 24  1  0  0  0  0
 26 17  1  0  0  0  0
 27 26  1  0  0  0  0
 28 14  1  0  0  0  0
 28 26  2  0  0  0  0
 29 28  1  0  0  0  0
M  CHG  2   4  -1  10  -1
M  END
