1,3,4
 OpenBabel05122313063D

 28 29  0  0  0  0  0  0  0  0999 V2000
   -0.4321    1.0476   -0.0980 N   0  0  0  0  0  2  0  0  0  0  0  0
   -1.6865    1.5836   -0.0399 N   0  0  0  0  0  0  0  0  0  0  0  0
    1.5196   -0.8753   -0.0634 O   0  5  0  0  0  0  0  0  0  0  0  0
   -2.2609   -0.6302   -0.3425 O   0  5  0  0  0  0  0  0  0  0  0  0
    4.3299   -1.9565   -0.0724 Br  0  0  0  0  0  0  0  0  0  0  0  0
    1.9643    1.4976    0.0478 C   0  0  0  0  0  0  0  0  0  0  0  0
    2.3783    0.1285   -0.0155 C   0  0  0  0  0  0  0  0  0  0  0  0
    3.7720   -0.1510    0.0064 C   0  0  0  0  0  0  0  0  0  0  0  0
    4.7215    0.8724    0.0877 C   0  0  0  0  0  0  0  0  0  0  0  0
    5.7926    0.6311    0.1027 H   0  0  0  0  0  0  0  0  0  0  0  0
    4.2944    2.2135    0.1532 C   0  0  0  0  0  0  0  0  0  0  0  0
    2.9359    2.5267    0.1366 C   0  0  0  0  0  0  0  0  0  0  0  0
    2.6134    3.5761    0.1884 H   0  0  0  0  0  0  0  0  0  0  0  0
    0.5731    1.8767    0.0447 C   0  0  0  0  0  3  0  0  0  0  0  0
    0.3217    2.9470    0.1679 H   0  0  0  0  0  0  0  0  0  0  0  0
   -2.5928    0.6336   -0.1971 C   0  0  0  0  0  0  0  0  0  0  0  0
   -4.0233    1.0095   -0.2049 C   0  0  0  0  0  0  0  0  0  0  0  0
   -5.0886    0.1197    0.0913 C   0  0  0  0  0  0  0  0  0  0  0  0
   -6.4223    0.5619    0.0412 C   0  0  0  0  0  0  0  0  0  0  0  0
   -7.2226   -0.1524    0.2791 H   0  0  0  0  0  0  0  0  0  0  0  0
   -6.7159    1.8878   -0.2973 C   0  0  0  0  0  0  0  0  0  0  0  0
   -7.7653    2.2163   -0.3376 H   0  0  0  0  0  0  0  0  0  0  0  0
   -5.6750    2.7888   -0.5774 C   0  0  0  0  0  0  0  0  0  0  0  0
   -5.8975    3.8330   -0.8407 H   0  0  0  0  0  0  0  0  0  0  0  0
   -4.3511    2.3495   -0.5272 C   0  0  0  0  0  0  0  0  0  0  0  0
   -3.5176    3.0317   -0.7441 H   0  0  0  0  0  0  0  0  0  0  0  0
    5.4829    3.4842    0.2556 Cl  0  0  0  0  0  0  0  0  0  0  0  0
   -4.8339   -1.5345    0.5834 Cl  0  0  0  0  0  0  0  0  0  0  0  0
  1  2  1  0  0  0  0
  1 14  1  0  0  0  0
  3  7  1  0  0  0  0
  4 16  1  0  0  0  0
  5  8  1  0  0  0  0
  6 12  1  0  0  0  0
  7  8  1  0  0  0  0
  7  6  2  0  0  0  0
  8  9  2  0  0  0  0
  9 10  1  0  0  0  0
  9 11  1  0  0  0  0
 11 27  1  0  0  0  0
 12 11  2  0  0  0  0
 12 13  1  0  0  0  0
 14  6  1  0  0  0  0
 14 15  1  0  0  0  0
 16  2  2  0  0  0  0
 17 16  1  0  0  0  0
 17 18  1  0  0  0  0
 18 28  1  0  0  0  0
 19 18  2  0  0  0  0
 19 20  1  0  0  0  0
 21 19  1  0  0  0  0
 22 21  1  0  0  0  0
 23 25  1  0  0  0  0
 23 21  2  0  0  0  0
 24 23  1  0  0  0  0
 25 17  2  0  0  0  0
 26 25  1  0  0  0  0
M  CHG  2   3  -1   4  -1
M  END
