1,2,4
 OpenBabel05122313063D

 28 29  0  0  1  0  0  0  0  0999 V2000
    1.9391    1.3536   -0.0412 O   0  0  0  0  0  1  0  0  0  0  0  0
   -1.6458    0.5128   -0.0010 O   0  5  0  0  0  0  0  0  0  0  0  0
   -1.8305    2.8122    0.0189 N   0  0  0  0  0  0  0  0  0  0  0  0
   -0.4685    2.6863    0.0107 N   0  0  0  0  0  2  0  0  0  0  0  0
   -3.8463    1.4545    0.0076 C   0  0  0  0  0  0  0  0  0  0  0  0
    1.6992    3.7823    0.0036 C   0  0  0  0  0  0  0  0  0  0  0  0
    2.4636    2.5581   -0.0344 C   0  0  2  0  0  3  0  0  0  0  0  0
    2.3881    5.0301    0.0147 C   0  0  0  0  0  0  0  0  0  0  0  0
    1.7877    5.9534    0.0455 H   0  0  0  0  0  0  0  0  0  0  0  0
   -2.3778    1.6109    0.0101 C   0  0  0  0  0  0  0  0  0  0  0  0
    0.2707    3.7782    0.0251 C   0  0  0  0  0  0  0  0  0  0  0  0
   -0.2770    4.7376    0.0496 H   0  0  0  0  0  0  0  0  0  0  0  0
   -4.6944    2.5806    0.0998 C   0  0  0  0  0  0  0  0  0  0  0  0
   -4.2362    3.5769    0.1754 H   0  0  0  0  0  0  0  0  0  0  0  0
    3.8863    2.6595   -0.0696 C   0  0  0  0  0  0  0  0  0  0  0  0
    4.4545    1.7188   -0.1122 H   0  0  0  0  0  0  0  0  0  0  0  0
    4.5231    3.8959   -0.0588 C   0  0  0  0  0  0  0  0  0  0  0  0
    5.6233    3.9370   -0.0874 H   0  0  0  0  0  0  0  0  0  0  0  0
   -6.0841    2.4150    0.0943 C   0  0  0  0  0  0  0  0  0  0  0  0
   -6.7393    3.2964    0.1683 H   0  0  0  0  0  0  0  0  0  0  0  0
    3.7749    5.0979   -0.0140 C   0  0  0  0  0  0  0  0  0  0  0  0
    4.2856    6.0716   -0.0052 H   0  0  0  0  0  0  0  0  0  0  0  0
   -4.4128    0.1653   -0.0955 C   0  0  0  0  0  0  0  0  0  0  0  0
   -3.7404   -0.7008   -0.1769 H   0  0  0  0  0  0  0  0  0  0  0  0
   -6.6444    1.1290   -0.0051 C   0  0  0  0  0  0  0  0  0  0  0  0
   -7.7379    1.0026   -0.0091 H   0  0  0  0  0  0  0  0  0  0  0  0
   -5.8050    0.0069   -0.1009 C   0  0  0  0  0  0  0  0  0  0  0  0
   -6.2399   -1.0011   -0.1829 H   0  0  0  0  0  0  0  0  0  0  0  0
  2 10  1  0  0  0  0
  4  3  1  0  0  0  0
  4 11  1  0  0  0  0
  5 10  1  0  0  0  0
  5 13  1  0  0  0  0
  6  8  1  0  0  0  0
  6 11  2  0  0  0  0
  7  1  1  6  0  0  0
  7  6  1  0  0  0  0
  8  9  1  0  0  0  0
 10  3  2  0  0  0  0
 11 12  1  0  0  0  0
 13 14  1  0  0  0  0
 15 17  2  0  0  0  0
 15  7  1  0  0  0  0
 16 15  1  0  0  0  0
 17 21  1  0  0  0  0
 18 17  1  0  0  0  0
 19 13  2  0  0  0  0
 19 20  1  0  0  0  0
 21 22  1  0  0  0  0
 21  8  2  0  0  0  0
 23  5  2  0  0  0  0
 24 23  1  0  0  0  0
 25 19  1  0  0  0  0
 26 25  1  0  0  0  0
 27 23  1  0  0  0  0
 27 25  2  0  0  0  0
 28 27  1  0  0  0  0
M  CHG  1   2  -1
M  END
