1,2,3
 OpenBabel05122313063D

 31 33  0  0  0  0  0  0  0  0999 V2000
    0.4789    0.8962   -0.1395 N   0  0  0  0  0  2  0  0  0  0  0  0
    2.9179    0.1881   -0.3046 O   0  5  0  0  0  0  0  0  0  0  0  0
   -0.1177   -1.5990   -0.7276 O   0  5  0  0  0  0  0  0  0  0  0  0
    2.7349    1.4981   -0.2074 C   0  0  0  0  0  0  0  0  0  0  0  0
    3.7962    2.4298   -0.1892 C   0  0  0  0  0  0  0  0  0  0  0  0
    4.8293    2.0561   -0.2233 H   0  0  0  0  0  0  0  0  0  0  0  0
    3.5049    3.7973   -0.1445 C   0  0  0  0  0  0  0  0  0  0  0  0
    4.3299    4.5258   -0.1384 H   0  0  0  0  0  0  0  0  0  0  0  0
    2.1701    4.2563   -0.1133 C   0  0  0  0  0  0  0  0  0  0  0  0
    1.9603    5.3353   -0.0807 H   0  0  0  0  0  0  0  0  0  0  0  0
    1.1105    3.3429   -0.1220 C   0  0  0  0  0  0  0  0  0  0  0  0
    0.0734    3.7096   -0.1009 H   0  0  0  0  0  0  0  0  0  0  0  0
    1.3863    1.9603   -0.1509 C   0  0  0  0  0  0  0  0  0  0  0  0
   -0.8240    1.0564   -0.0585 C   0  0  0  0  0  3  0  0  0  0  0  0
   -1.2066    2.0871    0.0500 H   0  0  0  0  0  0  0  0  0  0  0  0
   -1.7969    0.0098   -0.1440 C   0  0  0  0  0  0  0  0  0  0  0  0
   -1.3867   -1.2982   -0.5346 C   0  0  0  0  0  0  0  0  0  0  0  0
   -2.3587   -2.3172   -0.7760 C   0  0  0  0  0  0  0  0  0  0  0  0
   -1.9917   -3.3024   -1.0958 H   0  0  0  0  0  0  0  0  0  0  0  0
   -3.7008   -2.0555   -0.6037 C   0  0  0  0  0  0  0  0  0  0  0  0
   -4.4434   -2.8478   -0.7871 H   0  0  0  0  0  0  0  0  0  0  0  0
   -4.1663   -0.7715   -0.1778 C   0  0  0  0  0  0  0  0  0  0  0  0
   -3.2110    0.2791    0.0633 C   0  0  0  0  0  0  0  0  0  0  0  0
   -3.7112    1.5336    0.5113 C   0  0  0  0  0  0  0  0  0  0  0  0
   -3.0171    2.3549    0.7383 H   0  0  0  0  0  0  0  0  0  0  0  0
   -5.0736    1.7484    0.6933 C   0  0  0  0  0  0  0  0  0  0  0  0
   -5.4246    2.7312    1.0427 H   0  0  0  0  0  0  0  0  0  0  0  0
   -6.0083    0.7157    0.4419 C   0  0  0  0  0  0  0  0  0  0  0  0
   -7.0835    0.8953    0.5894 H   0  0  0  0  0  0  0  0  0  0  0  0
   -5.5538   -0.5249    0.0163 C   0  0  0  0  0  0  0  0  0  0  0  0
   -6.2634   -1.3446   -0.1763 H   0  0  0  0  0  0  0  0  0  0  0  0
  1 14  1  0  0  0  0
  2  4  1  0  0  0  0
  3 17  1  0  0  0  0
  4  5  2  0  0  0  0
  4 13  1  0  0  0  0
  5  7  1  0  0  0  0
  6  5  1  0  0  0  0
  7  8  1  0  0  0  0
  7  9  2  0  0  0  0
  9 10  1  0  0  0  0
 11  9  1  0  0  0  0
 11 12  1  0  0  0  0
 13  1  1  0  0  0  0
 13 11  2  0  0  0  0
 14 15  1  0  0  0  0
 16 14  1  0  0  0  0
 16 23  1  0  0  0  0
 17 16  2  0  0  0  0
 18 20  2  0  0  0  0
 18 17  1  0  0  0  0
 19 18  1  0  0  0  0
 20 22  1  0  0  0  0
 21 20  1  0  0  0  0
 22 30  2  0  0  0  0
 22 23  1  0  0  0  0
 23 24  2  0  0  0  0
 24 26  1  0  0  0  0
 24 25  1  0  0  0  0
 26 27  1  0  0  0  0
 28 29  1  0  0  0  0
 28 26  2  0  0  0  0
 30 28  1  0  0  0  0
 31 30  1  0  0  0  0
M  CHG  2   2  -1   3  -1
M  END
