4,5,9
 OpenBabel05122313063D

 66 68  0  0  0  0  0  0  0  0999 V2000
    4.9525    3.2772    1.6825 Cl  0  0  0  0  0  0  0  0  0  0  0  0
    0.4056    5.2409   -0.4904 Cl  0  0  0  0  0  0  0  0  0  0  0  0
    5.8200    0.9782   -0.2674 O   0  0  0  0  0  0  0  0  0  0  0  0
    1.0805   -3.4708   -0.0210 O   0  5  0  0  0  0  0  0  0  0  0  0
   -2.3967   -2.2621    0.0796 O   0  5  0  0  0  0  0  0  0  0  0  0
    3.9085   -0.3506   -0.2135 N   0  0  0  0  0  0  0  0  0  0  0  0
    2.8626   -0.2923   -0.1531 H   0  0  0  0  0  0  0  0  0  0  0  0
    1.4619   -1.2147   -0.1069 N   0  0  0  0  0  0  0  0  0  0  0  0
    0.0960   -1.2034   -0.0657 N   0  0  0  0  0  2  0  0  0  0  0  0
    3.6898    3.1249    0.4960 C   0  0  0  0  0  0  0  0  0  0  0  0
    2.7091    4.1315    0.4509 C   0  0  0  0  0  0  0  0  0  0  0  0
    2.7632    4.9808    1.1441 H   0  0  0  0  0  0  0  0  0  0  0  0
    1.6551    4.0225   -0.4678 C   0  0  0  0  0  0  0  0  0  0  0  0
    1.5796    2.9386   -1.3567 C   0  0  0  0  0  0  0  0  0  0  0  0
    0.7601    2.8772   -2.0859 H   0  0  0  0  0  0  0  0  0  0  0  0
    2.5574    1.9404   -1.2795 C   0  0  0  0  0  0  0  0  0  0  0  0
    2.4918    1.0737   -1.9541 H   0  0  0  0  0  0  0  0  0  0  0  0
    3.6205    1.9983   -0.3532 C   0  0  0  0  0  0  0  0  0  0  0  0
    4.6009    0.8409   -0.2707 C   0  0  0  0  0  0  0  0  0  0  0  0
    4.3563   -1.6674   -0.1752 C   0  0  0  0  0  0  0  0  0  0  0  0
    5.7293   -2.0020   -0.2004 C   0  0  0  0  0  0  0  0  0  0  0  0
    6.4563   -1.1814   -0.2435 H   0  0  0  0  0  0  0  0  0  0  0  0
    6.1282   -3.3422   -0.1672 C   0  0  0  0  0  0  0  0  0  0  0  0
    7.2026   -3.5812   -0.1880 H   0  0  0  0  0  0  0  0  0  0  0  0
    5.1777   -4.3773   -0.1079 C   0  0  0  0  0  0  0  0  0  0  0  0
    5.4991   -5.4289   -0.0838 H   0  0  0  0  0  0  0  0  0  0  0  0
    3.8178   -4.0584   -0.0805 C   0  0  0  0  0  0  0  0  0  0  0  0
    3.0501   -4.8437   -0.0365 H   0  0  0  0  0  0  0  0  0  0  0  0
    3.3761   -2.7180   -0.1113 C   0  0  0  0  0  0  0  0  0  0  0  0
    1.9210   -2.4638   -0.0792 C   0  0  0  0  0  0  0  0  0  0  0  0
   -0.5412   -0.0466   -0.0685 C   0  0  0  0  0  0  0  0  0  0  0  0
    0.0980    0.8526   -0.1147 H   0  0  0  0  0  0  0  0  0  0  0  0
   -1.9593    0.1101   -0.0167 C   0  0  0  0  0  0  0  0  0  0  0  0
   -2.8468   -1.0200    0.0615 C   0  0  0  0  0  0  0  0  0  0  0  0
   -4.2646   -0.7798    0.1230 C   0  0  0  0  0  0  0  0  0  0  0  0
   -5.2529   -1.9587    0.2164 C   0  0  0  0  0  0  0  0  0  0  0  0
   -6.7163   -1.4829    0.2714 C   0  0  0  0  0  0  0  0  0  0  0  0
   -6.9140   -0.8438    1.1555 H   0  0  0  0  0  0  0  0  0  0  0  0
   -7.3875   -2.3625    0.3401 H   0  0  0  0  0  0  0  0  0  0  0  0
   -7.0033   -0.9167   -0.6376 H   0  0  0  0  0  0  0  0  0  0  0  0
   -4.9797   -2.7664    1.5080 C   0  0  0  0  0  0  0  0  0  0  0  0
   -3.9360   -3.1317    1.5415 H   0  0  0  0  0  0  0  0  0  0  0  0
   -5.6661   -3.6366    1.5714 H   0  0  0  0  0  0  0  0  0  0  0  0
   -5.1430   -2.1364    2.4057 H   0  0  0  0  0  0  0  0  0  0  0  0
   -5.1040   -2.8674   -1.0275 C   0  0  0  0  0  0  0  0  0  0  0  0
   -5.3457   -2.3044   -1.9516 H   0  0  0  0  0  0  0  0  0  0  0  0
   -5.8025   -3.7276   -0.9606 H   0  0  0  0  0  0  0  0  0  0  0  0
   -4.0730   -3.2539   -1.1273 H   0  0  0  0  0  0  0  0  0  0  0  0
   -4.7029    0.5471    0.0946 C   0  0  0  0  0  0  0  0  0  0  0  0
   -5.7847    0.7295    0.1389 H   0  0  0  0  0  0  0  0  0  0  0  0
   -3.8470    1.6806    0.0122 C   0  0  0  0  0  0  0  0  0  0  0  0
   -4.4506    3.0944   -0.0145 C   0  0  0  0  0  0  0  0  0  0  0  0
   -3.3646    4.1806   -0.1009 C   0  0  0  0  0  0  0  0  0  0  0  0
   -2.7531    4.0859   -1.0206 H   0  0  0  0  0  0  0  0  0  0  0  0
   -2.6763    4.1509    0.7675 H   0  0  0  0  0  0  0  0  0  0  0  0
   -3.8363    5.1838   -0.1174 H   0  0  0  0  0  0  0  0  0  0  0  0
   -5.3764    3.2299   -1.2447 C   0  0  0  0  0  0  0  0  0  0  0  0
   -5.8319    4.2413   -1.2795 H   0  0  0  0  0  0  0  0  0  0  0  0
   -6.2023    2.4909   -1.2226 H   0  0  0  0  0  0  0  0  0  0  0  0
   -4.8093    3.0740   -2.1846 H   0  0  0  0  0  0  0  0  0  0  0  0
   -5.2703    3.3242    1.2755 C   0  0  0  0  0  0  0  0  0  0  0  0
   -5.7244    4.3369    1.2728 H   0  0  0  0  0  0  0  0  0  0  0  0
   -4.6259    3.2372    2.1735 H   0  0  0  0  0  0  0  0  0  0  0  0
   -6.0932    2.5886    1.3780 H   0  0  0  0  0  0  0  0  0  0  0  0
   -2.4812    1.4349   -0.0398 C   0  0  0  0  0  3  0  0  0  0  0  0
   -1.7595    2.2622   -0.0992 H   0  0  0  0  0  0  0  0  0  0  0  0
  2 13  1  0  0  0  0
  6 20  1  0  0  0  0
  6  7  1  0  0  0  0
  8 30  2  0  0  0  0
  8  9  1  0  0  0  0
 10  1  1  0  0  0  0
 11 10  1  0  0  0  0
 11 12  1  0  0  0  0
 13 11  2  0  0  0  0
 14 16  2  0  0  0  0
 14 13  1  0  0  0  0
 15 14  1  0  0  0  0
 16 18  1  0  0  0  0
 17 16  1  0  0  0  0
 18 19  1  0  0  0  0
 18 10  2  0  0  0  0
 19  3  2  0  0  0  0
 19  6  1  0  0  0  0
 20 29  1  0  0  0  0
 21 20  2  0  0  0  0
 21 23  1  0  0  0  0
 22 21  1  0  0  0  0
 23 25  2  0  0  0  0
 24 23  1  0  0  0  0
 25 26  1  0  0  0  0
 25 27  1  0  0  0  0
 27 28  1  0  0  0  0
 29 27  2  0  0  0  0
 29 30  1  0  0  0  0
 30  4  1  0  0  0  0
 31  9  1  0  0  0  0
 31 33  2  0  0  0  0
 32 31  1  0  0  0  0
 33 34  1  0  0  0  0
 34  5  1  0  0  0  0
 34 35  2  0  0  0  0
 35 36  1  0  0  0  0
 36 37  1  0  0  0  0
 36 41  1  0  0  0  0
 37 39  1  0  0  0  0
 37 38  1  0  0  0  0
 40 37  1  0  0  0  0
 41 42  1  0  0  0  0
 41 43  1  0  0  0  0
 41 44  1  0  0  0  0
 45 47  1  0  0  0  0
 45 36  1  0  0  0  0
 46 45  1  0  0  0  0
 48 45  1  0  0  0  0
 49 35  1  0  0  0  0
 49 50  1  0  0  0  0
 51 49  2  0  0  0  0
 52 51  1  0  0  0  0
 52 61  1  0  0  0  0
 53 52  1  0  0  0  0
 53 55  1  0  0  0  0
 54 53  1  0  0  0  0
 56 53  1  0  0  0  0
 57 59  1  0  0  0  0
 57 52  1  0  0  0  0
 58 57  1  0  0  0  0
 60 57  1  0  0  0  0
 61 64  1  0  0  0  0
 61 63  1  0  0  0  0
 62 61  1  0  0  0  0
 65 33  1  0  0  0  0
 65 51  1  0  0  0  0
 66 65  1  0  0  0  0
M  CHG  2   4  -1   5  -1
M  END
