1,3,4
 OpenBabel05122313063D

 28 29  0  0  0  0  0  0  0  0999 V2000
   -0.2112    0.8949   -0.0611 N   0  0  0  0  0  2  0  0  0  0  0  0
    1.0794    1.3228    0.0260 N   0  0  0  0  0  0  0  0  0  0  0  0
    1.5133   -0.9538   -0.1712 O   0  5  0  0  0  0  0  0  0  0  0  0
   -2.3176   -0.8600    0.0021 O   0  5  0  0  0  0  0  0  0  0  0  0
    1.8942    0.2903   -0.0615 C   0  0  0  0  0  0  0  0  0  0  0  0
    3.3459    0.5476   -0.0429 C   0  0  0  0  0  0  0  0  0  0  0  0
    3.8333    1.8550    0.0855 C   0  0  0  0  0  3  0  0  0  0  0  0
    3.1601    2.7187    0.1803 H   0  0  0  0  0  0  0  0  0  0  0  0
    5.1666    2.0688    0.0893 N   0  0  0  0  0  0  0  0  0  0  0  0
    6.0922    1.0765   -0.0269 C   0  0  0  0  0  0  0  0  0  0  0  0
    7.1486    1.3765   -0.0120 H   0  0  0  0  0  0  0  0  0  0  0  0
    5.6526   -0.2393   -0.1571 C   0  0  0  0  0  0  0  0  0  0  0  0
    6.3927   -1.0459   -0.2532 H   0  0  0  0  0  0  0  0  0  0  0  0
    4.2769   -0.5108   -0.1653 C   0  0  0  0  0  0  0  0  0  0  0  0
    3.8912   -1.5359   -0.2693 H   0  0  0  0  0  0  0  0  0  0  0  0
   -1.1515    1.8181   -0.0453 C   0  0  0  0  0  3  0  0  0  0  0  0
   -0.8184    2.8716    0.0176 H   0  0  0  0  0  0  0  0  0  0  0  0
   -2.5560    1.5499   -0.1163 C   0  0  0  0  0  0  0  0  0  0  0  0
   -3.0955    0.2174   -0.1094 C   0  0  0  0  0  0  0  0  0  0  0  0
   -4.4918    0.0343   -0.1797 C   0  0  0  0  0  0  0  0  0  0  0  0
   -4.8804   -0.9936   -0.1743 H   0  0  0  0  0  0  0  0  0  0  0  0
   -5.3432    1.1401   -0.2537 C   0  0  0  0  0  0  0  0  0  0  0  0
   -6.4301    0.9776   -0.3114 H   0  0  0  0  0  0  0  0  0  0  0  0
   -4.8304    2.4567   -0.2523 C   0  0  0  0  0  0  0  0  0  0  0  0
   -5.5122    3.3166   -0.3096 H   0  0  0  0  0  0  0  0  0  0  0  0
   -3.4562    2.6528   -0.1802 C   0  0  0  0  0  0  0  0  0  0  0  0
   -3.0391    3.6717   -0.1808 H   0  0  0  0  0  0  0  0  0  0  0  0
    5.5007    3.0362    0.1818 H   0  0  0  0  0  0  0  0  0  0  0  0
  1 16  1  0  0  0  0
  1  2  1  0  0  0  0
  3  5  1  0  0  0  0
  5  6  1  0  0  0  0
  5  2  2  0  0  0  0
  6  7  1  0  0  0  0
  7  9  1  0  0  0  0
  7  8  1  0  0  0  0
  9 28  1  0  0  0  0
 10 11  1  0  0  0  0
 10  9  1  0  0  0  0
 12 10  2  0  0  0  0
 13 12  1  0  0  0  0
 14 12  1  0  0  0  0
 14  6  2  0  0  0  0
 15 14  1  0  0  0  0
 16 17  1  0  0  0  0
 18 19  1  0  0  0  0
 18 16  1  0  0  0  0
 19  4  1  0  0  0  0
 20 21  1  0  0  0  0
 20 19  2  0  0  0  0
 22 24  2  0  0  0  0
 22 20  1  0  0  0  0
 23 22  1  0  0  0  0
 24 26  1  0  0  0  0
 25 24  1  0  0  0  0
 26 18  2  0  0  0  0
 27 26  1  0  0  0  0
M  CHG  2   3  -1   4  -1
M  END
