1,2,6
 OpenBabel05122313063D

 28 30  0  0  1  0  0  0  0  0999 V2000
    1.8495   -1.1059    0.4615 O   0  5  0  0  0  0  0  0  0  0  0  0
   -1.8801   -1.1737   -0.2730 O   0  5  0  0  0  0  0  0  0  0  0  0
    0.6887    2.9195    0.0481 N   0  0  0  0  0  0  0  0  0  0  0  0
    2.4524    1.1967   -0.0101 C   0  0  0  0  0  0  0  0  0  0  0  0
   -0.6594    2.8488    0.0489 N   0  0  0  0  0  0  0  0  0  0  0  0
   -0.0204    0.7768   -0.0108 N   0  0  0  0  0  2  0  0  0  0  0  0
   -4.1701   -0.6338   -0.1838 C   0  0  0  0  0  0  0  0  0  0  0  0
   -4.3838   -1.7048   -0.3074 H   0  0  0  0  0  0  0  0  0  0  0  0
    2.7816   -0.1703    0.2112 C   0  0  0  0  0  0  0  0  0  0  0  0
    3.4909    2.1344   -0.2118 C   0  0  0  0  0  0  0  0  0  0  0  0
    3.2138    3.1856   -0.3772 H   0  0  0  0  0  0  0  0  0  0  0  0
    1.0622    1.6358    0.0099 C   0  0  0  0  0  0  0  0  0  0  0  0
    4.1392   -0.5616    0.2183 C   0  0  0  0  0  0  0  0  0  0  0  0
    4.3652   -1.6237    0.3887 H   0  0  0  0  0  0  0  0  0  0  0  0
   -1.1133    1.5671    0.0158 C   0  0  2  0  0  3  0  0  0  0  0  0
   -2.4996    1.1485    0.0015 C   0  0  0  0  0  0  0  0  0  0  0  0
   -5.1905    0.3092   -0.0640 C   0  0  0  0  0  0  0  0  0  0  0  0
   -6.2397   -0.0221   -0.0918 H   0  0  0  0  0  0  0  0  0  0  0  0
   -2.8086   -0.2396   -0.1535 C   0  0  0  0  0  0  0  0  0  0  0  0
    4.8287    1.7359   -0.2058 C   0  0  0  0  0  0  0  0  0  0  0  0
    5.6250    2.4759   -0.3717 H   0  0  0  0  0  0  0  0  0  0  0  0
   -3.5560    2.0832    0.1278 C   0  0  0  0  0  0  0  0  0  0  0  0
   -3.3285    3.1524    0.2630 H   0  0  0  0  0  0  0  0  0  0  0  0
    5.1490    0.3811    0.0089 C   0  0  0  0  0  0  0  0  0  0  0  0
    6.2007    0.0563    0.0090 H   0  0  0  0  0  0  0  0  0  0  0  0
   -4.8894    1.6776    0.0958 C   0  0  0  0  0  0  0  0  0  0  0  0
   -5.6948    2.4187    0.1972 H   0  0  0  0  0  0  0  0  0  0  0  0
   -1.2104    3.7073    0.0604 H   0  0  0  0  0  0  0  0  0  0  0  0
  2 19  1  0  0  0  0
  3  5  1  0  0  0  0
  4 12  1  0  0  0  0
  4  9  1  0  0  0  0
  5 28  1  0  0  0  0
  6 12  1  0  0  0  0
  6 15  1  0  0  0  0
  7 19  2  0  0  0  0
  7 17  1  0  0  0  0
  8  7  1  0  0  0  0
  9 13  2  0  0  0  0
  9  1  1  0  0  0  0
 10 20  1  0  0  0  0
 10  4  2  0  0  0  0
 11 10  1  0  0  0  0
 12  3  2  0  0  0  0
 13 14  1  0  0  0  0
 15 16  1  6  0  0  0
 15  5  1  0  0  0  0
 16 22  2  0  0  0  0
 17 26  2  0  0  0  0
 18 17  1  0  0  0  0
 19 16  1  0  0  0  0
 20 24  2  0  0  0  0
 21 20  1  0  0  0  0
 22 23  1  0  0  0  0
 24 25  1  0  0  0  0
 24 13  1  0  0  0  0
 26 22  1  0  0  0  0
 26 27  1  0  0  0  0
M  CHG  2   1  -1   2  -1
M  END
