1,5,7
 OpenBabel05122313063D

 29 29  0  0  0  0  0  0  0  0999 V2000
   -0.3299   -1.3029   -0.6190 N   0  0  0  0  0  0  0  0  0  0  0  0
    0.3878    1.6374   -0.9711 O   0  0  0  0  0  0  0  0  0  0  0  0
    5.3828   -0.6157   -0.0600 O   0  0  0  0  0  0  0  0  0  0  0  0
    5.9856    0.0144    0.3757 H   0  0  0  0  0  0  0  0  0  0  0  0
   -2.9032   -0.6125    0.1337 O   0  5  0  0  0  0  0  0  0  0  0  0
   -3.6877   -2.6435   -0.4977 O   0  0  0  0  0  0  0  0  0  0  0  0
    0.1113    0.2359    1.7008 O   0  5  0  0  0  0  0  0  0  0  0  0
    1.5737   -1.3078    2.4770 O   0  0  0  0  0  0  0  0  0  0  0  0
    0.7528   -1.0712   -1.6074 C   0  0  0  0  0  0  0  0  0  0  0  0
    0.2907   -0.5616   -2.4786 H   0  0  0  0  0  0  0  0  0  0  0  0
    1.1606   -2.0457   -1.9615 H   0  0  0  0  0  0  0  0  0  0  0  0
    1.8786   -0.2299   -1.0587 C   0  0  0  0  0  0  0  0  0  0  0  0
    1.6661    1.1308   -0.7507 C   0  0  0  0  0  0  0  0  0  0  0  0
    2.6898    1.9143   -0.2135 C   0  0  0  0  0  0  0  0  0  0  0  0
    2.5009    2.9680    0.0468 H   0  0  0  0  0  0  0  0  0  0  0  0
    3.9526    1.3525    0.0215 C   0  0  0  0  0  0  0  0  0  0  0  0
    4.7550    1.9731    0.4512 H   0  0  0  0  0  0  0  0  0  0  0  0
    4.1871   -0.0038   -0.2705 C   0  0  0  0  0  0  0  0  0  0  0  0
    3.1424   -0.7806   -0.8079 C   0  0  0  0  0  0  0  0  0  0  0  0
    3.3344   -1.8425   -1.0189 H   0  0  0  0  0  0  0  0  0  0  0  0
   -2.8139   -1.7923   -0.4487 C   0  0  0  0  0  0  0  0  0  0  0  0
   -1.4715   -2.0380   -1.1967 C   0  0  0  0  0  0  0  0  0  0  0  0
   -1.2861   -3.1326   -1.2512 H   0  0  0  0  0  0  0  0  0  0  0  0
   -1.6228   -1.6787   -2.2375 H   0  0  0  0  0  0  0  0  0  0  0  0
    0.7139   -0.9333    1.6934 C   0  0  0  0  0  0  0  0  0  0  0  0
    0.1778   -1.9318    0.6249 C   0  0  0  0  0  0  0  0  0  0  0  0
    0.9611   -2.6905    0.4125 H   0  0  0  0  0  0  0  0  0  0  0  0
   -0.6716   -2.4628    1.1038 H   0  0  0  0  0  0  0  0  0  0  0  0
    0.3998    2.6057   -0.8507 H   0  0  0  0  0  0  0  0  0  0  0  0
  1 26  1  0  0  0  0
  2 29  1  0  0  0  0
  2 13  1  0  0  0  0
  3  4  1  0  0  0  0
  6 21  2  0  0  0  0
  9 12  1  0  0  0  0
  9  1  1  0  0  0  0
 10  9  1  0  0  0  0
 11  9  1  0  0  0  0
 12 19  2  0  0  0  0
 12 13  1  0  0  0  0
 13 14  2  0  0  0  0
 14 16  1  0  0  0  0
 14 15  1  0  0  0  0
 16 17  1  0  0  0  0
 18  3  1  0  0  0  0
 18 16  2  0  0  0  0
 19 18  1  0  0  0  0
 20 19  1  0  0  0  0
 21  5  1  0  0  0  0
 22  1  1  0  0  0  0
 22 21  1  0  0  0  0
 23 22  1  0  0  0  0
 24 22  1  0  0  0  0
 25  7  1  0  0  0  0
 25  8  2  0  0  0  0
 26 28  1  0  0  0  0
 26 25  1  0  0  0  0
 27 26  1  0  0  0  0
M  CHG  2   5  -1   7  -1
M  END
