2,3,5
 OpenBabel05122313063D

 36 38  0  0  1  0  0  0  0  0999 V2000
   -3.2673    0.7661   -0.0003 O   0  0  0  0  0  0  0  0  0  0  0  0
   -1.1406    1.2022    0.0005 O   0  5  0  0  0  0  0  0  0  0  0  0
    2.5839    0.6260   -0.0001 O   0  5  0  0  0  0  0  0  0  0  0  0
   -7.9905    0.3227   -0.0011 O   0  0  0  0  0  0  0  0  0  0  0  0
    0.6365   -0.9889    0.0000 N   0  0  0  0  0  2  0  0  0  0  0  0
    1.8715   -1.5754    0.0000 N   0  0  0  0  0  0  0  0  0  0  0  0
   -4.4165   -0.0227   -0.0002 C   0  0  0  0  0  0  0  0  0  0  0  0
   -4.2473   -1.4589    0.0004 C   0  0  0  0  0  0  0  0  0  0  0  0
   -2.0227    0.2656    0.0002 C   0  0  0  0  0  0  0  0  0  0  0  0
   -1.7920   -1.1429    0.0005 C   0  0  0  0  0  0  0  0  0  0  0  0
    4.5934   -2.4776   -0.0008 C   0  0  0  0  0  0  0  0  0  0  0  0
    3.7896   -3.2268   -0.0010 H   0  0  0  0  0  0  0  0  0  0  0  0
   -5.6310    0.5981   -0.0008 C   0  0  0  0  0  0  0  0  0  0  0  0
   -5.7204    1.6927   -0.0012 H   0  0  0  0  0  0  0  0  0  0  0  0
   -6.8703   -0.2014   -0.0007 C   0  0  0  0  0  0  0  0  0  0  0  0
    4.2537   -1.1049   -0.0003 C   0  0  0  0  0  0  0  0  0  0  0  0
    2.8418   -0.6814   -0.0001 C   0  0  0  0  0  0  0  0  0  0  0  0
   -2.9665   -1.9763    0.0007 C   0  0  0  0  0  0  0  0  0  0  0  0
   -2.8495   -3.0683    0.0012 H   0  0  0  0  0  0  0  0  0  0  0  0
   -0.4704   -1.7351    0.0005 C   0  0  1  0  0  3  0  0  0  0  0  0
    5.9368   -2.8664   -0.0010 C   0  0  0  0  0  0  0  0  0  0  0  0
    6.1955   -3.9356   -0.0013 H   0  0  0  0  0  0  0  0  0  0  0  0
   -0.3378   -3.2342    0.0007 C   0  0  0  0  0  0  0  0  0  0  0  0
   -0.8319   -3.6697    0.8927 H   0  0  0  0  0  0  0  0  0  0  0  0
   -0.8318   -3.6699   -0.8913 H   0  0  0  0  0  0  0  0  0  0  0  0
    0.7256   -3.5215    0.0009 H   0  0  0  0  0  0  0  0  0  0  0  0
    5.2811   -0.1350   -0.0001 C   0  0  0  0  0  0  0  0  0  0  0  0
    5.0133    0.9310    0.0002 H   0  0  0  0  0  0  0  0  0  0  0  0
   -5.4536   -2.2569    0.0006 C   0  0  0  0  0  0  0  0  0  0  0  0
   -5.3443   -3.3531    0.0011 H   0  0  0  0  0  0  0  0  0  0  0  0
   -6.6873   -1.6725    0.0001 C   0  0  0  0  0  0  0  0  0  0  0  0
   -7.6106   -2.2705    0.0002 H   0  0  0  0  0  0  0  0  0  0  0  0
    6.9550   -1.8966   -0.0007 C   0  0  0  0  0  0  0  0  0  0  0  0
    8.0106   -2.2070   -0.0009 H   0  0  0  0  0  0  0  0  0  0  0  0
    6.6241   -0.5317   -0.0003 C   0  0  0  0  0  0  0  0  0  0  0  0
    7.4199    0.2279   -0.0001 H   0  0  0  0  0  0  0  0  0  0  0  0
  1  7  1  0  0  0  0
  1  9  1  0  0  0  0
  4 15  2  0  0  0  0
  5  6  1  0  0  0  0
  7  8  1  0  0  0  0
  8 29  1  0  0  0  0
  8 18  2  0  0  0  0
  9  2  1  0  0  0  0
  9 10  2  0  0  0  0
 10 18  1  0  0  0  0
 11 16  1  0  0  0  0
 12 11  1  0  0  0  0
 13 15  1  0  0  0  0
 13  7  2  0  0  0  0
 14 13  1  0  0  0  0
 15 31  1  0  0  0  0
 16 27  2  0  0  0  0
 16 17  1  0  0  0  0
 17  3  1  0  0  0  0
 17  6  2  0  0  0  0
 18 19  1  0  0  0  0
 20  5  1  6  0  0  0
 20 10  1  0  0  0  0
 20 23  1  0  0  0  0
 21 11  2  0  0  0  0
 21 33  1  0  0  0  0
 22 21  1  0  0  0  0
 23 26  1  0  0  0  0
 23 24  1  0  0  0  0
 25 23  1  0  0  0  0
 27 28  1  0  0  0  0
 29 30  1  0  0  0  0
 31 32  1  0  0  0  0
 31 29  2  0  0  0  0
 33 35  2  0  0  0  0
 34 33  1  0  0  0  0
 35 36  1  0  0  0  0
 35 27  1  0  0  0  0
M  CHG  2   2  -1   3  -1
M  END
