2,4,10
 OpenBabel05122313063D

 36 38  0  0  1  0  0  0  0  0999 V2000
   -8.2468   -1.5793   -0.0022 Cl  0  0  0  0  0  0  0  0  0  0  0  0
    1.7628    1.2055    0.0042 O   0  0  0  0  0  1  0  0  0  0  0  0
    3.8463    0.5962    0.0017 O   0  0  0  0  0  0  0  0  0  0  0  0
   -1.9978    0.9396   -0.0020 O   0  5  0  0  0  0  0  0  0  0  0  0
    8.5169   -0.2330   -0.0022 O   0  0  0  0  0  0  0  0  0  0  0  0
   -1.4670   -1.3138    0.0027 N   0  0  0  0  0  0  0  0  0  0  0  0
    4.6403   -1.7018   -0.0004 C   0  0  0  0  0  0  0  0  0  0  0  0
    3.3213   -2.1123    0.0002 C   0  0  0  0  0  0  0  0  0  0  0  0
    3.1152   -3.1910   -0.0004 H   0  0  0  0  0  0  0  0  0  0  0  0
   -0.1883   -0.8312    0.0022 N   0  0  0  0  0  2  0  0  0  0  0  0
    0.8535   -1.6663    0.0026 C   0  0  2  0  0  3  0  0  0  0  0  0
    2.2192   -1.1852    0.0016 C   0  0  0  0  0  0  0  0  0  0  0  0
    2.5650    0.1995    0.0024 C   0  0  1  0  0  3  0  0  0  0  0  0
   -6.1194    0.1150   -0.0031 C   0  0  0  0  0  0  0  0  0  0  0  0
   -6.8628    0.9242   -0.0048 H   0  0  0  0  0  0  0  0  0  0  0  0
    0.5980   -3.1493    0.0038 C   0  0  0  0  0  0  0  0  0  0  0  0
   -0.4854   -3.3485    0.0060 H   0  0  0  0  0  0  0  0  0  0  0  0
    1.0564   -3.6239    0.8949 H   0  0  0  0  0  0  0  0  0  0  0  0
    1.0526   -3.6246   -0.8890 H   0  0  0  0  0  0  0  0  0  0  0  0
    4.9269   -0.2843    0.0004 C   0  0  0  0  0  0  0  0  0  0  0  0
   -3.7995   -0.6512   -0.0004 C   0  0  0  0  0  0  0  0  0  0  0  0
    6.1881    0.2350   -0.0002 C   0  0  0  0  0  3  0  0  0  0  0  0
    6.3669    1.3186    0.0005 H   0  0  0  0  0  0  0  0  0  0  0  0
    7.3576   -0.6635   -0.0017 C   0  0  0  0  0  0  0  0  0  0  0  0
   -4.7500    0.3944   -0.0025 C   0  0  0  0  0  0  0  0  0  0  0  0
   -4.4034    1.4373   -0.0038 H   0  0  0  0  0  0  0  0  0  0  0  0
   -6.5507   -1.2244   -0.0015 C   0  0  0  0  0  0  0  0  0  0  0  0
   -2.3607   -0.3429    0.0002 C   0  0  0  0  0  0  0  0  0  0  0  0
    7.0546   -2.1147   -0.0025 C   0  0  0  0  0  0  0  0  0  0  0  0
    7.9257   -2.7864   -0.0036 H   0  0  0  0  0  0  0  0  0  0  0  0
   -5.6177   -2.2800    0.0007 C   0  0  0  0  0  0  0  0  0  0  0  0
   -5.9744   -3.3193    0.0019 H   0  0  0  0  0  0  0  0  0  0  0  0
    5.7771   -2.5960   -0.0019 C   0  0  0  0  0  0  0  0  0  0  0  0
    5.5784   -3.6795   -0.0025 H   0  0  0  0  0  0  0  0  0  0  0  0
   -4.2522   -1.9913    0.0012 C   0  0  0  0  0  0  0  0  0  0  0  0
   -3.5147   -2.8058    0.0029 H   0  0  0  0  0  0  0  0  0  0  0  0
  1 27  1  0  0  0  0
  3 13  1  0  0  0  0
  4 28  1  0  0  0  0
  5 24  2  0  0  0  0
  7  8  1  0  0  0  0
  7 20  2  0  0  0  0
  8 12  2  0  0  0  0
  9  8  1  0  0  0  0
 10  6  1  0  0  0  0
 11 10  1  6  0  0  0
 11 16  1  0  0  0  0
 12 13  1  0  0  0  0
 12 11  1  0  0  0  0
 13  2  1  1  0  0  0
 14 25  2  0  0  0  0
 14 27  1  0  0  0  0
 15 14  1  0  0  0  0
 16 17  1  0  0  0  0
 16 18  1  0  0  0  0
 19 16  1  0  0  0  0
 20  3  1  0  0  0  0
 21 28  1  0  0  0  0
 21 35  2  0  0  0  0
 22 20  1  0  0  0  0
 22 23  1  0  0  0  0
 24 22  1  0  0  0  0
 25 21  1  0  0  0  0
 26 25  1  0  0  0  0
 27 31  2  0  0  0  0
 28  6  2  0  0  0  0
 29 33  2  0  0  0  0
 29 24  1  0  0  0  0
 30 29  1  0  0  0  0
 31 35  1  0  0  0  0
 31 32  1  0  0  0  0
 33  7  1  0  0  0  0
 34 33  1  0  0  0  0
 35 36  1  0  0  0  0
M  CHG  1   4  -1
M  END
