1,12,31
 OpenBabel05122313063D

 31 31  0  0  0  0  0  0  0  0999 V2000
   -0.3190    2.0880   -0.0324 O   0  5  0  0  0  0  0  0  0  0  0  0
    0.6914    2.9579   -0.0298 C   0  0  0  0  0  0  0  0  0  0  0  0
    0.4956    4.3575   -0.0349 C   0  0  0  0  0  0  0  0  0  0  0  0
   -0.5331    4.7466   -0.0375 H   0  0  0  0  0  0  0  0  0  0  0  0
    1.6070    5.2090   -0.0291 C   0  0  0  0  0  0  0  0  0  0  0  0
    1.4530    6.2991   -0.0317 H   0  0  0  0  0  0  0  0  0  0  0  0
    2.9179    4.6889   -0.0189 C   0  0  0  0  0  0  0  0  0  0  0  0
    3.7820    5.3696   -0.0138 H   0  0  0  0  0  0  0  0  0  0  0  0
    3.1259    3.3029   -0.0136 C   0  0  0  0  0  0  0  0  0  0  0  0
    4.1507    2.9031   -0.0039 H   0  0  0  0  0  0  0  0  0  0  0  0
    2.0157    2.4378   -0.0211 C   0  0  0  0  0  0  0  0  0  0  0  0
    2.0230    1.0242   -0.0174 N   0  0  0  0  0  2  0  0  0  0  0  0
    3.1253    0.2979   -0.0210 C   0  0  0  0  0  3  0  0  0  0  0  0
    4.0934    0.8249   -0.0373 H   0  0  0  0  0  0  0  0  0  0  0  0
    3.1897   -1.1239    0.0015 C   0  0  0  0  0  0  0  0  0  0  0  0
    4.5246   -1.7631   -0.0053 C   0  0  0  0  0  0  0  0  0  0  0  0
    4.7606   -2.9652   -0.0021 O   0  0  0  0  0  0  0  0  0  0  0  0
    5.5361   -0.8389   -0.0184 O   0  0  0  0  0  0  0  0  0  0  0  0
    6.8693   -1.3752   -0.0317 C   0  0  0  0  0  0  0  0  0  0  0  0
    6.9893   -2.0320   -0.9200 H   0  0  0  0  0  0  0  0  0  0  0  0
    7.0096   -2.0251    0.8586 H   0  0  0  0  0  0  0  0  0  0  0  0
    7.8387   -0.2102   -0.0472 C   0  0  0  0  0  0  0  0  0  0  0  0
    8.8823   -0.5827   -0.0573 H   0  0  0  0  0  0  0  0  0  0  0  0
    7.6883    0.4210   -0.9458 H   0  0  0  0  0  0  0  0  0  0  0  0
    7.7082    0.4282    0.8493 H   0  0  0  0  0  0  0  0  0  0  0  0
    2.0097   -1.9222    0.0303 C   0  0  0  0  0  0  0  0  0  0  0  0
    2.0346   -3.4284    0.0839 C   0  0  0  0  0  0  0  0  0  0  0  0
    2.6366   -3.7849    0.9414 H   0  0  0  0  0  0  0  0  0  0  0  0
    0.9950   -3.7960    0.1569 H   0  0  0  0  0  0  0  0  0  0  0  0
    2.5346   -3.8473   -0.8115 H   0  0  0  0  0  0  0  0  0  0  0  0
    0.8190   -1.4226    0.0177 O   0  5  0  0  0  0  0  0  0  0  0  0
  1  2  1  0  0  0  0
  2 11  1  0  0  0  0
  3  2  2  0  0  0  0
  3  5  1  0  0  0  0
  4  3  1  0  0  0  0
  5  7  2  0  0  0  0
  6  5  1  0  0  0  0
  7  8  1  0  0  0  0
  7  9  1  0  0  0  0
  9 10  1  0  0  0  0
 11 12  1  0  0  0  0
 11  9  2  0  0  0  0
 13 12  1  0  0  0  0
 13 15  1  0  0  0  0
 14 13  1  0  0  0  0
 15 26  2  0  0  0  0
 16 17  2  0  0  0  0
 16 15  1  0  0  0  0
 18 16  1  0  0  0  0
 19 18  1  0  0  0  0
 19 21  1  0  0  0  0
 20 19  1  0  0  0  0
 22 19  1  0  0  0  0
 22 25  1  0  0  0  0
 23 22  1  0  0  0  0
 24 22  1  0  0  0  0
 26 27  1  0  0  0  0
 27 29  1  0  0  0  0
 27 28  1  0  0  0  0
 30 27  1  0  0  0  0
 31 26  1  0  0  0  0
M  CHG  2   1  -1  31  -1
M  END
