1,2,5
 OpenBabel05122313063D

 30 31  0  0  0  0  0  0  0  0999 V2000
   -1.6193    1.0270   -1.1104 O   0  5  0  0  0  0  0  0  0  0  0  0
    2.0606   -0.0183   -0.9760 O   0  5  0  0  0  0  0  0  0  0  0  0
   -7.1921   -1.0969    0.7777 O   0  0  0  0  0  0  0  0  0  0  0  0
   -5.9011   -2.5956    1.7117 O   0  0  0  0  0  0  0  0  0  0  0  0
   -0.0599   -0.9639    0.0145 N   0  0  0  0  0  2  0  0  0  0  0  0
    1.0766   -1.5791    0.4399 N   0  0  0  0  0  0  0  0  0  0  0  0
    3.6187   -2.6127    1.0380 N   0  0  0  0  0  0  0  0  0  0  0  0
    2.8620   -3.1058    1.5164 H   0  0  0  0  0  0  0  0  0  0  0  0
    4.8969   -2.9572    1.2054 N   0  0  0  0  0  0  0  0  0  0  0  0
   -6.0899   -1.5891    1.0256 N   0  0  0  0  0  0  0  0  0  0  0  0
   -2.4875   -0.8226    0.1870 C   0  0  0  0  0  0  0  0  0  0  0  0
   -2.6476    0.3634   -0.6104 C   0  0  0  0  0  0  0  0  0  0  0  0
   -3.9501    0.8689   -0.8523 C   0  0  0  0  0  0  0  0  0  0  0  0
   -4.0383    1.7756   -1.4668 H   0  0  0  0  0  0  0  0  0  0  0  0
   -5.0738    0.2368   -0.3272 C   0  0  0  0  0  0  0  0  0  0  0  0
   -6.0904    0.6126   -0.5042 H   0  0  0  0  0  0  0  0  0  0  0  0
   -4.9047   -0.9186    0.4584 C   0  0  0  0  0  0  0  0  0  0  0  0
   -3.6399   -1.4437    0.7170 C   0  0  0  0  0  0  0  0  0  0  0  0
   -3.5605   -2.3478    1.3367 H   0  0  0  0  0  0  0  0  0  0  0  0
   -1.1977   -1.3940    0.4965 C   0  0  0  0  0  3  0  0  0  0  0  0
   -1.1599   -2.2542    1.1914 H   0  0  0  0  0  0  0  0  0  0  0  0
    2.1332   -1.0319   -0.1390 C   0  0  0  0  0  0  0  0  0  0  0  0
    3.4482   -1.5628    0.1745 C   0  0  0  0  0  0  0  0  0  0  0  0
    4.7342   -1.2049   -0.2478 C   0  0  0  0  0  0  0  0  0  0  0  0
    4.9838   -0.4034   -0.9500 H   0  0  0  0  0  0  0  0  0  0  0  0
    5.6016   -2.1064    0.4242 C   0  0  0  0  0  0  0  0  0  0  0  0
    7.0936   -2.2005    0.3533 C   0  0  0  0  0  0  0  0  0  0  0  0
    7.4484   -3.0107    1.0171 H   0  0  0  0  0  0  0  0  0  0  0  0
    7.5771   -1.2527    0.6671 H   0  0  0  0  0  0  0  0  0  0  0  0
    7.4377   -2.4182   -0.6786 H   0  0  0  0  0  0  0  0  0  0  0  0
  1 12  1  0  0  0  0
  2 22  1  0  0  0  0
  3 10  2  0  0  0  0
  5  6  1  0  0  0  0
  5 20  1  0  0  0  0
  7  9  1  0  0  0  0
  7  8  1  0  0  0  0
 10  4  2  0  0  0  0
 11 20  1  0  0  0  0
 11 18  1  0  0  0  0
 12 11  2  0  0  0  0
 13 12  1  0  0  0  0
 13 15  2  0  0  0  0
 14 13  1  0  0  0  0
 15 17  1  0  0  0  0
 16 15  1  0  0  0  0
 17 18  2  0  0  0  0
 17 10  1  0  0  0  0
 18 19  1  0  0  0  0
 20 21  1  0  0  0  0
 22 23  1  0  0  0  0
 22  6  2  0  0  0  0
 23  7  1  0  0  0  0
 24 23  2  0  0  0  0
 24 26  1  0  0  0  0
 25 24  1  0  0  0  0
 26  9  2  0  0  0  0
 27 26  1  0  0  0  0
 27 29  1  0  0  0  0
 27 28  1  0  0  0  0
 30 27  1  0  0  0  0
M  CHG  2   1  -1   2  -1
M  END
