1,3,5
 OpenBabel05122313063D

 39 40  0  0  0  0  0  0  0  0999 V2000
    0.3061    0.8718    0.0025 N   0  0  0  0  0  2  0  0  0  0  0  0
    1.6563    1.0386    0.0698 N   0  0  0  0  0  0  0  0  0  0  0  0
   -2.0854   -0.4154    0.2908 O   0  5  0  0  0  0  0  0  0  0  0  0
   -4.7001   -0.3387    0.1605 O   0  0  0  0  0  0  0  0  0  0  0  0
    1.5588   -1.2604   -0.1035 O   0  5  0  0  0  0  0  0  0  0  0  0
    4.1435    2.0574    0.1317 O   0  0  0  0  0  0  0  0  0  0  0  0
   -1.8712    1.9750   -0.0343 C   0  0  0  0  0  0  0  0  0  0  0  0
   -2.6385    0.7822    0.0863 C   0  0  0  0  0  0  0  0  0  0  0  0
   -4.0655    0.8509    0.0375 C   0  0  0  0  0  0  0  0  0  0  0  0
   -4.6932    2.0974   -0.1218 C   0  0  0  0  0  0  0  0  0  0  0  0
   -5.7887    2.1599   -0.1619 H   0  0  0  0  0  0  0  0  0  0  0  0
   -3.9272    3.2780   -0.2289 C   0  0  0  0  0  0  0  0  0  0  0  0
   -4.4399    4.2430   -0.3524 H   0  0  0  0  0  0  0  0  0  0  0  0
   -2.5390    3.2233   -0.1810 C   0  0  0  0  0  0  0  0  0  0  0  0
   -1.9359    4.1394   -0.2676 H   0  0  0  0  0  0  0  0  0  0  0  0
   -0.4300    1.9575    0.0120 C   0  0  0  0  0  3  0  0  0  0  0  0
    0.1099    2.9226    0.0417 H   0  0  0  0  0  0  0  0  0  0  0  0
    2.2606   -0.1311   -0.0177 C   0  0  0  0  0  0  0  0  0  0  0  0
    3.7250   -0.2849   -0.0160 C   0  0  0  0  0  0  0  0  0  0  0  0
    4.6480    0.8078    0.0573 C   0  0  0  0  0  0  0  0  0  0  0  0
    6.0345    0.5407    0.0479 C   0  0  0  0  0  0  0  0  0  0  0  0
    6.7519    1.3693    0.1033 H   0  0  0  0  0  0  0  0  0  0  0  0
    6.5112   -0.7743   -0.0327 C   0  0  0  0  0  0  0  0  0  0  0  0
    7.5977   -0.9515   -0.0385 H   0  0  0  0  0  0  0  0  0  0  0  0
    5.6169   -1.8525   -0.1062 C   0  0  0  0  0  0  0  0  0  0  0  0
    5.9879   -2.8854   -0.1710 H   0  0  0  0  0  0  0  0  0  0  0  0
    4.2430   -1.5982   -0.0970 C   0  0  0  0  0  0  0  0  0  0  0  0
    3.5185   -2.4219   -0.1550 H   0  0  0  0  0  0  0  0  0  0  0  0
   -6.1234   -0.3681    0.0808 C   0  0  0  0  0  0  0  0  0  0  0  0
   -6.4550    0.0671   -0.8909 H   0  0  0  0  0  0  0  0  0  0  0  0
   -6.5608    0.2612    0.8915 H   0  0  0  0  0  0  0  0  0  0  0  0
   -6.5675   -1.8120    0.2111 C   0  0  0  0  0  0  0  0  0  0  0  0
   -6.1330   -2.4288   -0.5998 H   0  0  0  0  0  0  0  0  0  0  0  0
   -7.6716   -1.8794    0.1525 H   0  0  0  0  0  0  0  0  0  0  0  0
   -6.2406   -2.2368    1.1804 H   0  0  0  0  0  0  0  0  0  0  0  0
    5.0284    3.1591    0.1980 C   0  0  0  0  0  0  0  0  0  0  0  0
    5.6732    3.1207    1.1043 H   0  0  0  0  0  0  0  0  0  0  0  0
    4.3904    4.0606    0.2481 H   0  0  0  0  0  0  0  0  0  0  0  0
    5.6790    3.2248   -0.7025 H   0  0  0  0  0  0  0  0  0  0  0  0
  1 16  1  0  0  0  0
  1  2  1  0  0  0  0
  5 18  1  0  0  0  0
  6 36  1  0  0  0  0
  7 16  1  0  0  0  0
  7  8  1  0  0  0  0
  8  3  1  0  0  0  0
  9  8  2  0  0  0  0
  9  4  1  0  0  0  0
 10  9  1  0  0  0  0
 11 10  1  0  0  0  0
 12 14  1  0  0  0  0
 12 10  2  0  0  0  0
 13 12  1  0  0  0  0
 14  7  2  0  0  0  0
 15 14  1  0  0  0  0
 16 17  1  0  0  0  0
 18 19  1  0  0  0  0
 18  2  2  0  0  0  0
 19 20  1  0  0  0  0
 20  6  1  0  0  0  0
 21 20  2  0  0  0  0
 21 22  1  0  0  0  0
 23 21  1  0  0  0  0
 24 23  1  0  0  0  0
 25 27  1  0  0  0  0
 25 23  2  0  0  0  0
 26 25  1  0  0  0  0
 27 19  2  0  0  0  0
 28 27  1  0  0  0  0
 29  4  1  0  0  0  0
 29 32  1  0  0  0  0
 29 31  1  0  0  0  0
 30 29  1  0  0  0  0
 32 35  1  0  0  0  0
 33 32  1  0  0  0  0
 34 32  1  0  0  0  0
 36 38  1  0  0  0  0
 36 37  1  0  0  0  0
 39 36  1  0  0  0  0
M  CHG  2   3  -1   5  -1
M  END
