1,4,5
 OpenBabel05122313063D

 34 35  0  0  0  0  0  0  0  0999 V2000
    0.0210    0.9937   -0.1184 N   0  0  0  0  0  2  0  0  0  0  0  0
    1.3357    1.3260   -0.0272 N   0  0  0  0  0  0  0  0  0  0  0  0
    7.7556    0.6123    0.0019 N   0  0  0  0  0  0  0  0  0  0  0  0
    1.5590   -0.9669   -0.2168 O   0  5  0  0  0  0  0  0  0  0  0  0
   -2.1972   -0.5966    0.0215 O   0  5  0  0  0  0  0  0  0  0  0  0
   -4.8018   -0.8387   -0.0119 O   0  0  0  0  0  0  0  0  0  0  0  0
    2.0904    0.2421   -0.1076 C   0  0  0  0  0  0  0  0  0  0  0  0
    3.5482    0.3424   -0.0695 C   0  0  0  0  0  0  0  0  0  0  0  0
    4.3481   -0.8215   -0.1446 C   0  0  0  0  0  0  0  0  0  0  0  0
    3.8507   -1.7980   -0.2313 H   0  0  0  0  0  0  0  0  0  0  0  0
    5.7375   -0.7377   -0.1095 C   0  0  0  0  0  0  0  0  0  0  0  0
    6.3456   -1.6538   -0.1715 H   0  0  0  0  0  0  0  0  0  0  0  0
    6.3851    0.5212    0.0028 C   0  0  0  0  0  0  0  0  0  0  0  0
    5.5781    1.6896    0.0793 C   0  0  0  0  0  0  0  0  0  0  0  0
    6.0632    2.6748    0.1650 H   0  0  0  0  0  0  0  0  0  0  0  0
    4.1909    1.5990    0.0422 C   0  0  0  0  0  0  0  0  0  0  0  0
    3.5680    2.5027    0.1010 H   0  0  0  0  0  0  0  0  0  0  0  0
   -0.8513    1.9754   -0.1012 C   0  0  0  0  0  3  0  0  0  0  0  0
   -0.4398    3.0008   -0.0498 H   0  0  0  0  0  0  0  0  0  0  0  0
   -2.2838    1.8147   -0.1447 C   0  0  0  0  0  0  0  0  0  0  0  0
   -2.8952    0.5309   -0.0848 C   0  0  0  0  0  0  0  0  0  0  0  0
   -4.3208    0.4269   -0.0923 C   0  0  0  0  0  0  0  0  0  0  0  0
   -5.1022    1.5907   -0.1710 C   0  0  0  0  0  0  0  0  0  0  0  0
   -6.1979    1.5178   -0.1824 H   0  0  0  0  0  0  0  0  0  0  0  0
   -4.4901    2.8610   -0.2325 C   0  0  0  0  0  0  0  0  0  0  0  0
   -5.1199    3.7603   -0.2945 H   0  0  0  0  0  0  0  0  0  0  0  0
   -3.1044    2.9753   -0.2138 C   0  0  0  0  0  0  0  0  0  0  0  0
   -2.6211    3.9628   -0.2586 H   0  0  0  0  0  0  0  0  0  0  0  0
   -6.2034   -1.0231   -0.0400 C   0  0  0  0  0  0  0  0  0  0  0  0
   -6.7056   -0.5253    0.8205 H   0  0  0  0  0  0  0  0  0  0  0  0
   -6.3757   -2.1132    0.0238 H   0  0  0  0  0  0  0  0  0  0  0  0
   -6.6523   -0.6402   -0.9841 H   0  0  0  0  0  0  0  0  0  0  0  0
    8.3076   -0.2311    0.1458 H   0  0  0  0  0  0  0  0  0  0  0  0
    8.1939    1.4868    0.2842 H   0  0  0  0  0  0  0  0  0  0  0  0
  1 18  1  0  0  0  0
  1  2  1  0  0  0  0
  3 13  1  0  0  0  0
  3 33  1  0  0  0  0
  3 34  1  0  0  0  0
  4  7  1  0  0  0  0
  7  8  1  0  0  0  0
  7  2  2  0  0  0  0
  8 16  1  0  0  0  0
  9 11  1  0  0  0  0
  9  8  2  0  0  0  0
 10  9  1  0  0  0  0
 11 13  2  0  0  0  0
 12 11  1  0  0  0  0
 13 14  1  0  0  0  0
 14 15  1  0  0  0  0
 16 14  2  0  0  0  0
 16 17  1  0  0  0  0
 18 19  1  0  0  0  0
 20 18  1  0  0  0  0
 20 21  1  0  0  0  0
 21  5  1  0  0  0  0
 22 21  2  0  0  0  0
 22  6  1  0  0  0  0
 23 22  1  0  0  0  0
 24 23  1  0  0  0  0
 25 27  1  0  0  0  0
 25 23  2  0  0  0  0
 26 25  1  0  0  0  0
 27 20  2  0  0  0  0
 28 27  1  0  0  0  0
 29  6  1  0  0  0  0
 29 31  1  0  0  0  0
 29 30  1  0  0  0  0
 32 29  1  0  0  0  0
M  CHG  2   4  -1   5  -1
M  END
