2,3,13
 OpenBabel05122313063D

 25 26  0  0  1  0  0  0  0  0999 V2000
    5.9947    0.4905    0.1280 Cl  0  0  0  0  0  0  0  0  0  0  0  0
   -1.9980    0.6791   -0.2102 O   0  0  0  0  0  1  0  0  0  0  0  0
    0.6216   -1.9075   -0.0461 O   0  5  0  0  0  0  0  0  0  0  0  0
    1.8482   -1.4213   -0.0004 C   0  0  0  0  0  0  0  0  0  0  0  0
    3.0110   -2.2307    0.0297 C   0  0  0  0  0  0  0  0  0  0  0  0
    2.8954   -3.3240    0.0204 H   0  0  0  0  0  0  0  0  0  0  0  0
    4.2757   -1.6387    0.0695 C   0  0  0  0  0  0  0  0  0  0  0  0
    5.1840   -2.2573    0.0914 H   0  0  0  0  0  0  0  0  0  0  0  0
    4.3989   -0.2322    0.0807 C   0  0  0  0  0  0  0  0  0  0  0  0
    3.2708    0.5953    0.0531 C   0  0  0  0  0  0  0  0  0  0  0  0
    3.4049    1.6851    0.0585 H   0  0  0  0  0  0  0  0  0  0  0  0
    1.9973   -0.0040    0.0161 C   0  0  0  0  0  0  0  0  0  0  0  0
    0.7460    0.6495   -0.0126 N   0  0  0  0  0  2  0  0  0  0  0  0
    0.6142    1.9637    0.0245 C   0  0  0  0  0  0  0  0  0  0  0  0
    1.5322    2.5732    0.1083 H   0  0  0  0  0  0  0  0  0  0  0  0
   -0.6200    2.6741   -0.0481 C   0  0  0  0  0  0  0  0  0  0  0  0
   -0.6082    4.0995   -0.0052 C   0  0  0  0  0  0  0  0  0  0  0  0
    0.3641    4.6082    0.0957 H   0  0  0  0  0  0  0  0  0  0  0  0
   -1.7789    4.8404   -0.0914 C   0  0  0  0  0  0  0  0  0  0  0  0
   -1.7482    5.9390   -0.0573 H   0  0  0  0  0  0  0  0  0  0  0  0
   -3.0153    4.1615   -0.2303 C   0  0  0  0  0  0  0  0  0  0  0  0
   -3.9500    4.7388   -0.3074 H   0  0  0  0  0  0  0  0  0  0  0  0
   -3.0656    2.7725   -0.2742 C   0  0  0  0  0  0  0  0  0  0  0  0
   -4.0210    2.2397   -0.3914 H   0  0  0  0  0  0  0  0  0  0  0  0
   -1.8807    1.9816   -0.1768 C   0  0  1  0  0  3  0  0  0  0  0  0
  3  4  1  0  0  0  0
  4 12  2  0  0  0  0
  4  5  1  0  0  0  0
  5  7  2  0  0  0  0
  6  5  1  0  0  0  0
  7  9  1  0  0  0  0
  7  8  1  0  0  0  0
  9  1  1  0  0  0  0
 10 11  1  0  0  0  0
 10  9  2  0  0  0  0
 12 10  1  0  0  0  0
 13 12  1  0  0  0  0
 13 14  1  0  0  0  0
 14 15  1  0  0  0  0
 16 17  1  0  0  0  0
 16 14  2  0  0  0  0
 17 18  1  0  0  0  0
 19 20  1  0  0  0  0
 19 17  2  0  0  0  0
 21 19  1  0  0  0  0
 22 21  1  0  0  0  0
 23 21  2  0  0  0  0
 23 25  1  0  0  0  0
 24 23  1  0  0  0  0
 25  2  1  6  0  0  0
 25 16  1  0  0  0  0
M  CHG  1   3  -1
M  END
