1,3,4
 OpenBabel05122313063D

 29 30  0  0  0  0  0  0  0  0999 V2000
    0.1692   -1.6279    0.1195 N   0  0  0  0  0  2  0  0  0  0  0  0
   -1.1387   -1.9806    0.2650 N   0  0  0  0  0  0  0  0  0  0  0  0
    2.3342    0.0676   -0.4780 O   0  5  0  0  0  0  0  0  0  0  0  0
   -1.4643    0.2200   -0.3674 O   0  5  0  0  0  0  0  0  0  0  0  0
   -6.3934    0.9224   -0.4114 O   0  0  0  0  0  0  0  0  0  0  0  0
   -7.3303    0.6693   -0.3186 H   0  0  0  0  0  0  0  0  0  0  0  0
    2.5226   -2.2534    0.2651 C   0  0  0  0  0  0  0  0  0  0  0  0
    3.0552   -0.9748   -0.1489 C   0  0  0  0  0  0  0  0  0  0  0  0
    4.4755   -0.8397   -0.2057 C   0  0  0  0  0  0  0  0  0  0  0  0
    4.8697    0.1345   -0.5295 H   0  0  0  0  0  0  0  0  0  0  0  0
    5.3219   -1.8923    0.1275 C   0  0  0  0  0  0  0  0  0  0  0  0
    6.4120   -1.7459    0.0697 H   0  0  0  0  0  0  0  0  0  0  0  0
    4.8001   -3.1439    0.5311 C   0  0  0  0  0  0  0  0  0  0  0  0
    5.4734   -3.9746    0.7866 H   0  0  0  0  0  0  0  0  0  0  0  0
    3.4212   -3.3080    0.5912 C   0  0  0  0  0  0  0  0  0  0  0  0
    2.9923   -4.2765    0.8943 H   0  0  0  0  0  0  0  0  0  0  0  0
    1.1151   -2.5119    0.3530 C   0  0  0  0  0  3  0  0  0  0  0  0
    0.7689   -3.5196    0.6448 H   0  0  0  0  0  0  0  0  0  0  0  0
   -1.9251   -0.9464   -0.0174 C   0  0  0  0  0  0  0  0  0  0  0  0
   -3.3945   -1.1210    0.0810 C   0  0  0  0  0  0  0  0  0  0  0  0
   -4.2313   -0.0286   -0.2090 C   0  0  0  0  0  0  0  0  0  0  0  0
   -3.7925    0.9320   -0.5099 H   0  0  0  0  0  0  0  0  0  0  0  0
   -5.6275   -0.1679   -0.1201 C   0  0  0  0  0  0  0  0  0  0  0  0
   -6.1838   -1.4057    0.2602 C   0  0  0  0  0  0  0  0  0  0  0  0
   -7.2791   -1.5161    0.3285 H   0  0  0  0  0  0  0  0  0  0  0  0
   -5.3418   -2.4929    0.5470 C   0  0  0  0  0  0  0  0  0  0  0  0
   -5.7867   -3.4562    0.8398 H   0  0  0  0  0  0  0  0  0  0  0  0
   -3.9518   -2.3629    0.4614 C   0  0  0  0  0  0  0  0  0  0  0  0
   -3.2782   -3.2025    0.6780 H   0  0  0  0  0  0  0  0  0  0  0  0
  1  2  1  0  0  0  0
  1 17  1  0  0  0  0
  3  8  1  0  0  0  0
  4 19  1  0  0  0  0
  5  6  1  0  0  0  0
  5 23  1  0  0  0  0
  7 17  1  0  0  0  0
  7 15  1  0  0  0  0
  8  7  2  0  0  0  0
  9  8  1  0  0  0  0
  9 11  2  0  0  0  0
 10  9  1  0  0  0  0
 11 13  1  0  0  0  0
 12 11  1  0  0  0  0
 13 15  2  0  0  0  0
 13 14  1  0  0  0  0
 15 16  1  0  0  0  0
 17 18  1  0  0  0  0
 19 20  1  0  0  0  0
 19  2  2  0  0  0  0
 20 28  1  0  0  0  0
 21 23  1  0  0  0  0
 21 20  2  0  0  0  0
 22 21  1  0  0  0  0
 23 24  2  0  0  0  0
 24 25  1  0  0  0  0
 24 26  1  0  0  0  0
 26 27  1  0  0  0  0
 28 26  2  0  0  0  0
 28 29  1  0  0  0  0
M  CHG  2   3  -1   4  -1
M  END
