1,23,26
 OpenBabel05122313063D

 34 36  0  0  1  0  0  0  0  0999 V2000
   -0.7419    1.5972   -0.9438 O   0  5  0  0  0  0  0  0  0  0  0  0
   -1.9452    1.0791   -0.7356 C   0  0  0  0  0  0  0  0  0  0  0  0
   -2.1159   -0.2536   -0.2644 C   0  0  0  0  0  0  0  0  0  0  0  0
   -3.4588   -0.6867    0.0813 C   0  0  0  0  0  0  0  0  0  0  0  0
   -3.7319   -1.8741    0.8218 C   0  0  0  0  0  0  0  0  0  0  0  0
   -2.9010   -2.4858    1.1933 H   0  0  0  0  0  0  0  0  0  0  0  0
   -5.0326   -2.2540    1.1365 C   0  0  0  0  0  0  0  0  0  0  0  0
   -5.2009   -3.1726    1.7189 H   0  0  0  0  0  0  0  0  0  0  0  0
   -6.1351   -1.4626    0.7349 C   0  0  0  0  0  0  0  0  0  0  0  0
   -7.1607   -1.7756    0.9803 H   0  0  0  0  0  0  0  0  0  0  0  0
   -5.9044   -0.2711    0.0620 C   0  0  0  0  0  0  0  0  0  0  0  0
   -6.7440    0.3829   -0.2210 H   0  0  0  0  0  0  0  0  0  0  0  0
   -4.5835    0.1518   -0.2555 C   0  0  0  0  0  0  0  0  0  0  0  0
   -4.3521    1.4240   -0.8636 C   0  0  0  0  0  0  0  0  0  0  0  0
   -5.2189    2.0486   -1.1298 H   0  0  0  0  0  0  0  0  0  0  0  0
   -3.0723    1.8891   -1.0708 C   0  0  0  0  0  0  0  0  0  0  0  0
   -2.8710    2.8838   -1.4924 H   0  0  0  0  0  0  0  0  0  0  0  0
   -0.9674   -1.1510   -0.2722 C   0  0  1  0  0  3  0  0  0  0  0  0
   -1.1104   -2.6305   -0.5175 C   0  0  0  0  0  0  0  0  0  0  0  0
   -0.3574   -2.9287   -1.2723 H   0  0  0  0  0  0  0  0  0  0  0  0
   -2.1247   -2.8973   -0.8573 H   0  0  0  0  0  0  0  0  0  0  0  0
   -0.8559   -3.2156    0.3908 H   0  0  0  0  0  0  0  0  0  0  0  0
    0.2672   -0.6620   -0.1827 N   0  0  0  0  0  2  0  0  0  0  0  0
    1.2959   -1.5483   -0.2452 N   0  0  0  0  0  0  0  0  0  0  0  0
    2.4356   -0.8896   -0.1302 C   0  0  0  0  0  0  0  0  0  0  0  0
    2.4776    0.4210   -0.0586 O   0  5  0  0  0  0  0  0  0  0  0  0
    3.7046   -1.5960   -0.0892 C   0  0  0  0  0  0  0  0  0  0  0  0
    5.0031   -1.1218    0.0116 C   0  0  0  0  0  0  0  0  0  0  0  0
    5.2900   -0.0678    0.0775 H   0  0  0  0  0  0  0  0  0  0  0  0
    5.8484   -2.2728    0.0103 C   0  0  0  0  0  0  0  0  0  0  0  0
    6.9414   -2.2988    0.0758 H   0  0  0  0  0  0  0  0  0  0  0  0
    5.0056   -3.3606   -0.0922 C   0  0  0  0  0  0  0  0  0  0  0  0
    5.1743   -4.4416   -0.1336 H   0  0  0  0  0  0  0  0  0  0  0  0
    3.7096   -2.9631   -0.1520 O   0  0  0  0  0  0  0  0  0  0  0  0
  1  2  1  0  0  0  0
  2  3  1  0  0  0  0
  3  4  2  0  0  0  0
  4  5  1  0  0  0  0
  5  7  2  0  0  0  0
  5  6  1  0  0  0  0
  7  8  1  0  0  0  0
  9 10  1  0  0  0  0
  9  7  1  0  0  0  0
 11  9  2  0  0  0  0
 12 11  1  0  0  0  0
 13 11  1  0  0  0  0
 13  4  1  0  0  0  0
 14 13  2  0  0  0  0
 15 14  1  0  0  0  0
 16 14  1  0  0  0  0
 16  2  2  0  0  0  0
 17 16  1  0  0  0  0
 18  3  1  0  0  0  0
 18 23  1  6  0  0  0
 19 18  1  0  0  0  0
 19 22  1  0  0  0  0
 20 19  1  0  0  0  0
 21 19  1  0  0  0  0
 24 23  1  0  0  0  0
 24 25  2  0  0  0  0
 25 27  1  0  0  0  0
 25 26  1  0  0  0  0
 27 28  2  0  0  0  0
 28 29  1  0  0  0  0
 30 28  1  0  0  0  0
 30 31  1  0  0  0  0
 32 30  2  0  0  0  0
 33 32  1  0  0  0  0
 34 32  1  0  0  0  0
 34 27  1  0  0  0  0
M  CHG  2   1  -1  26  -1
M  END
