1,2,3
 OpenBabel05122313063D

 25 26  0  0  0  0  0  0  0  0999 V2000
    2.0809    1.4967   -0.4765 O   0  5  0  0  0  0  0  0  0  0  0  0
   -1.4662    1.4338    0.4777 O   0  5  0  0  0  0  0  0  0  0  0  0
    0.4034   -0.4240   -0.1144 N   0  0  0  0  0  2  0  0  0  0  0  0
   -0.5991   -1.2624   -0.0875 C   0  0  0  0  0  3  0  0  0  0  0  0
   -0.3986   -2.3518   -0.1381 H   0  0  0  0  0  0  0  0  0  0  0  0
    4.2982   -3.9153    0.1612 Cl  0  0  0  0  0  0  0  0  0  0  0  0
   -5.5593   -2.7723   -0.1413 Cl  0  0  0  0  0  0  0  0  0  0  0  0
    2.6191    0.2934   -0.3718 C   0  0  0  0  0  0  0  0  0  0  0  0
    1.7450   -0.8118   -0.1416 C   0  0  0  0  0  0  0  0  0  0  0  0
    2.2595   -2.1118    0.0326 C   0  0  0  0  0  0  0  0  0  0  0  0
    1.6036   -2.9682    0.2409 H   0  0  0  0  0  0  0  0  0  0  0  0
    3.6416   -2.3090   -0.0538 C   0  0  0  0  0  0  0  0  0  0  0  0
    4.5173   -1.2308   -0.3054 C   0  0  0  0  0  0  0  0  0  0  0  0
    5.5983   -1.4201   -0.3651 H   0  0  0  0  0  0  0  0  0  0  0  0
    4.0111    0.0618   -0.4663 C   0  0  0  0  0  0  0  0  0  0  0  0
    4.6784    0.9142   -0.6565 H   0  0  0  0  0  0  0  0  0  0  0  0
   -2.3629    0.4781    0.3015 C   0  0  0  0  0  0  0  0  0  0  0  0
   -1.9831   -0.8753    0.0090 C   0  0  0  0  0  0  0  0  0  0  0  0
   -2.9867   -1.8711   -0.1143 C   0  0  0  0  0  0  0  0  0  0  0  0
   -2.6969   -2.9101   -0.3301 H   0  0  0  0  0  0  0  0  0  0  0  0
   -4.3325   -1.5420    0.0292 C   0  0  0  0  0  0  0  0  0  0  0  0
   -4.7129   -0.2128    0.3178 C   0  0  0  0  0  0  0  0  0  0  0  0
   -5.7788    0.0311    0.4309 H   0  0  0  0  0  0  0  0  0  0  0  0
   -3.7397    0.7766    0.4555 C   0  0  0  0  0  0  0  0  0  0  0  0
   -4.0180    1.8154    0.6835 H   0  0  0  0  0  0  0  0  0  0  0  0
  1  8  1  0  0  0  0
  3  4  1  0  0  0  0
  4 18  1  0  0  0  0
  5  4  1  0  0  0  0
  7 21  1  0  0  0  0
  8  9  1  0  0  0  0
  9  3  1  0  0  0  0
  9 10  2  0  0  0  0
 10 11  1  0  0  0  0
 12 10  1  0  0  0  0
 12  6  1  0  0  0  0
 13 12  2  0  0  0  0
 14 13  1  0  0  0  0
 15  8  2  0  0  0  0
 15 13  1  0  0  0  0
 16 15  1  0  0  0  0
 17 24  1  0  0  0  0
 17  2  1  0  0  0  0
 18 17  2  0  0  0  0
 19 18  1  0  0  0  0
 19 21  2  0  0  0  0
 20 19  1  0  0  0  0
 21 22  1  0  0  0  0
 22 23  1  0  0  0  0
 22 24  2  0  0  0  0
 24 25  1  0  0  0  0
M  CHG  2   1  -1   2  -1
M  END
