3,5,6
 OpenBabel05122313063D

 28 29  0  0  0  0  0  0  0  0999 V2000
   -6.6586   -1.8013    0.3414 Cl  0  0  0  0  0  0  0  0  0  0  0  0
    4.3764    1.1590    0.6716 Cl  0  0  0  0  0  0  0  0  0  0  0  0
   -0.3513   -0.7040   -0.0258 N   0  0  0  0  0  2  0  0  0  0  0  0
    0.7833   -1.4472   -0.0105 N   0  0  0  0  0  0  0  0  0  0  0  0
   -1.8154    1.4214   -0.6046 O   0  5  0  0  0  0  0  0  0  0  0  0
    1.6727    0.6480   -0.2803 O   0  5  0  0  0  0  0  0  0  0  0  0
   -2.7815   -0.6975   -0.0165 C   0  0  0  0  0  0  0  0  0  0  0  0
   -2.8938    0.6880   -0.3643 C   0  0  0  0  0  0  0  0  0  0  0  0
   -4.1782    1.2655   -0.4918 C   0  0  0  0  0  0  0  0  0  0  0  0
   -4.2444    2.3277   -0.7657 H   0  0  0  0  0  0  0  0  0  0  0  0
   -5.3267    0.5038   -0.2742 C   0  0  0  0  0  0  0  0  0  0  0  0
   -6.3239    0.9563   -0.3689 H   0  0  0  0  0  0  0  0  0  0  0  0
   -5.2140   -0.8612    0.0705 C   0  0  0  0  0  0  0  0  0  0  0  0
   -3.9606   -1.4584    0.1920 C   0  0  0  0  0  0  0  0  0  0  0  0
   -3.8820   -2.5233    0.4543 H   0  0  0  0  0  0  0  0  0  0  0  0
   -1.4982   -1.3397    0.0613 C   0  0  0  0  0  3  0  0  0  0  0  0
   -1.4522   -2.4373    0.1888 H   0  0  0  0  0  0  0  0  0  0  0  0
    1.8288   -0.6379   -0.1227 C   0  0  0  0  0  0  0  0  0  0  0  0
    3.1869   -1.2288   -0.1258 C   0  0  0  0  0  0  0  0  0  0  0  0
    4.3751   -0.5112    0.1677 C   0  0  0  0  0  0  0  0  0  0  0  0
    5.6269   -1.1501    0.1139 C   0  0  0  0  0  0  0  0  0  0  0  0
    6.5261   -0.5649    0.3515 H   0  0  0  0  0  0  0  0  0  0  0  0
    5.7167   -2.5049   -0.2249 C   0  0  0  0  0  0  0  0  0  0  0  0
    6.7041   -2.9888   -0.2661 H   0  0  0  0  0  0  0  0  0  0  0  0
    4.5504   -3.2377   -0.5016 C   0  0  0  0  0  0  0  0  0  0  0  0
    4.6111   -4.3043   -0.7627 H   0  0  0  0  0  0  0  0  0  0  0  0
    3.3083   -2.6029   -0.4477 C   0  0  0  0  0  0  0  0  0  0  0  0
    2.3796   -3.1506   -0.6596 H   0  0  0  0  0  0  0  0  0  0  0  0
  3  4  1  0  0  0  0
  3 16  1  0  0  0  0
  5  8  1  0  0  0  0
  6 18  1  0  0  0  0
  7 16  1  0  0  0  0
  7 14  1  0  0  0  0
  8  7  2  0  0  0  0
  9  8  1  0  0  0  0
  9 11  2  0  0  0  0
 10  9  1  0  0  0  0
 11 13  1  0  0  0  0
 12 11  1  0  0  0  0
 13 14  2  0  0  0  0
 13  1  1  0  0  0  0
 14 15  1  0  0  0  0
 16 17  1  0  0  0  0
 18  4  2  0  0  0  0
 19 18  1  0  0  0  0
 19 20  1  0  0  0  0
 20  2  1  0  0  0  0
 21 20  2  0  0  0  0
 21 22  1  0  0  0  0
 23 21  1  0  0  0  0
 24 23  1  0  0  0  0
 25 27  1  0  0  0  0
 25 23  2  0  0  0  0
 26 25  1  0  0  0  0
 27 19  2  0  0  0  0
 28 27  1  0  0  0  0
M  CHG  2   5  -1   6  -1
M  END
