1,2,3
 OpenBabel05122313063D

 28 29  0  0  1  0  0  0  0  0999 V2000
    1.3726   -1.5498    0.0004 O   0  5  0  0  0  0  0  0  0  0  0  0
   -2.0655   -0.2468   -0.0008 O   0  0  0  0  0  1  0  0  0  0  0  0
    0.4791    0.8577   -0.0001 N   0  0  0  0  0  2  0  0  0  0  0  0
    2.3092   -0.6110    0.0003 C   0  0  0  0  0  0  0  0  0  0  0  0
    3.6973   -0.8894    0.0005 C   0  0  0  0  0  0  0  0  0  0  0  0
    4.6144    0.1634    0.0002 C   0  0  0  0  0  0  0  0  0  0  0  0
    4.2026    1.5219   -0.0003 C   0  0  0  0  0  0  0  0  0  0  0  0
    2.8271    1.7994   -0.0005 C   0  0  0  0  0  0  0  0  0  0  0  0
    1.8872    0.7495   -0.0001 C   0  0  0  0  0  0  0  0  0  0  0  0
    5.2271    2.6303   -0.0007 C   0  0  0  0  0  0  0  0  0  0  0  0
   -0.1787    2.0023    0.0003 C   0  0  0  0  0  0  0  0  0  0  0  0
   -1.6019    2.1401    0.0001 C   0  0  0  0  0  0  0  0  0  0  0  0
   -2.1678    3.4490    0.0005 C   0  0  0  0  0  0  0  0  0  0  0  0
   -3.5414    3.6530    0.0004 C   0  0  0  0  0  0  0  0  0  0  0  0
   -4.4046    2.5297   -0.0002 C   0  0  0  0  0  0  0  0  0  0  0  0
   -3.8902    1.2373   -0.0006 C   0  0  0  0  0  0  0  0  0  0  0  0
   -2.4849    0.9967   -0.0004 C   0  0  1  0  0  3  0  0  0  0  0  0
    4.0263   -1.9389    0.0009 H   0  0  0  0  0  0  0  0  0  0  0  0
    5.6924   -0.0655    0.0004 H   0  0  0  0  0  0  0  0  0  0  0  0
    2.4944    2.8487   -0.0009 H   0  0  0  0  0  0  0  0  0  0  0  0
   -1.4807    4.3106    0.0010 H   0  0  0  0  0  0  0  0  0  0  0  0
   -3.9540    4.6721    0.0007 H   0  0  0  0  0  0  0  0  0  0  0  0
   -5.4959    2.6776   -0.0004 H   0  0  0  0  0  0  0  0  0  0  0  0
   -4.5502    0.3572   -0.0011 H   0  0  0  0  0  0  0  0  0  0  0  0
    5.8889    2.5753   -0.8912 H   0  0  0  0  0  0  0  0  0  0  0  0
    4.7480    3.6289   -0.0019 H   0  0  0  0  0  0  0  0  0  0  0  0
    5.8879    2.5769    0.8906 H   0  0  0  0  0  0  0  0  0  0  0  0
    0.4080    2.9393    0.0007 H   0  0  0  0  0  0  0  0  0  0  0  0
  3 11  1  0  0  0  0
  4  1  1  0  0  0  0
  4  5  1  0  0  0  0
  5 18  1  0  0  0  0
  6 19  1  0  0  0  0
  6  5  2  0  0  0  0
  7  6  1  0  0  0  0
  8  7  2  0  0  0  0
  8  9  1  0  0  0  0
  9  3  1  0  0  0  0
  9  4  2  0  0  0  0
 10  7  1  0  0  0  0
 10 27  1  0  0  0  0
 11 28  1  0  0  0  0
 12 11  2  0  0  0  0
 12 13  1  0  0  0  0
 13 21  1  0  0  0  0
 14 13  2  0  0  0  0
 14 22  1  0  0  0  0
 15 14  1  0  0  0  0
 16 17  1  0  0  0  0
 16 15  2  0  0  0  0
 17  2  1  6  0  0  0
 17 12  1  0  0  0  0
 20  8  1  0  0  0  0
 23 15  1  0  0  0  0
 24 16  1  0  0  0  0
 25 10  1  0  0  0  0
 26 10  1  0  0  0  0
M  CHG  1   1  -1
M  END
