1,2,3
 OpenBabel05122313063D

 58 59  0  0  1  0  0  0  0  0999 V2000
    1.2907    0.2227   -0.9607 O   0  0  0  0  0  1  0  0  0  0  0  0
   -1.5247    0.0206   -1.6650 O   0  0  0  0  0  1  0  0  0  0  0  0
   -0.7184    0.6785    1.0909 N   0  0  0  0  0  2  0  0  0  0  0  0
    2.4665    0.2248   -0.2164 C   0  0  2  0  0  0  0  0  0  0  0  0
    3.4650   -0.9356   -0.6081 C   0  0  0  0  0  0  0  0  0  0  0  0
    4.0941   -1.3553    0.7583 C   0  0  0  0  0  0  0  0  0  0  0  0
    3.6586   -0.2901    1.7847 C   0  0  0  0  0  0  0  0  0  0  0  0
    2.2585    0.1356    1.3167 C   0  0  2  0  0  0  0  0  0  0  0  0
    1.1674   -0.8633    1.7622 C   0  0  0  0  0  0  0  0  0  0  0  0
    4.5287   -0.3903   -1.5736 C   0  0  0  0  0  0  0  0  0  0  0  0
    2.7265   -2.1030   -1.2755 C   0  0  0  0  0  0  0  0  0  0  0  0
   -0.2082   -0.6594    1.1453 C   0  0  0  0  0  0  0  0  0  0  0  0
   -0.9445   -1.7086    0.6742 C   0  0  0  0  0  0  0  0  0  0  0  0
   -2.2910   -1.6021   -0.0156 C   0  0  2  0  0  0  0  0  0  0  0  0
   -2.8745   -2.9802    0.2030 C   0  0  0  0  0  0  0  0  0  0  0  0
   -1.9496   -3.8505    0.6578 C   0  0  0  0  0  0  0  0  0  0  0  0
   -0.6137   -3.1810    0.8749 C   0  0  0  0  0  0  0  0  0  0  0  0
   -1.2994    1.2302    2.3521 C   0  0  0  0  0  0  0  0  0  0  0  0
   -1.8205    0.0952    3.2603 C   0  0  0  0  0  0  0  0  0  0  0  0
   -2.5077    2.1230    2.0079 C   0  0  0  0  0  0  0  0  0  0  0  0
   -0.2514    2.0483    3.1373 C   0  0  0  0  0  0  0  0  0  0  0  0
   -2.1614   -1.2279   -1.5559 C   0  0  0  0  0  0  0  0  0  0  0  0
   -3.5633   -1.1024   -2.1705 C   0  0  0  0  0  0  0  0  0  0  0  0
   -1.3105   -2.2515   -2.3211 C   0  0  0  0  0  0  0  0  0  0  0  0
    3.0100    1.1873   -0.3997 H   0  0  0  0  0  0  0  0  0  0  0  0
    3.7075   -2.3514    1.0587 H   0  0  0  0  0  0  0  0  0  0  0  0
    5.1967   -1.4565    0.6970 H   0  0  0  0  0  0  0  0  0  0  0  0
    4.3414    0.5850    1.7413 H   0  0  0  0  0  0  0  0  0  0  0  0
    3.6756   -0.6596    2.8307 H   0  0  0  0  0  0  0  0  0  0  0  0
    1.9838    1.1371    1.7044 H   0  0  0  0  0  0  0  0  0  0  0  0
    1.5047   -1.8986    1.5647 H   0  0  0  0  0  0  0  0  0  0  0  0
    1.0908   -0.7802    2.8717 H   0  0  0  0  0  0  0  0  0  0  0  0
    5.1263    0.4175   -1.1017 H   0  0  0  0  0  0  0  0  0  0  0  0
    4.0522    0.0292   -2.4843 H   0  0  0  0  0  0  0  0  0  0  0  0
    5.2303   -1.1885   -1.8942 H   0  0  0  0  0  0  0  0  0  0  0  0
    1.9246   -2.5041   -0.6259 H   0  0  0  0  0  0  0  0  0  0  0  0
    3.4336   -2.9285   -1.4990 H   0  0  0  0  0  0  0  0  0  0  0  0
    2.2505   -1.7802   -2.2218 H   0  0  0  0  0  0  0  0  0  0  0  0
   -2.9111   -0.7888    0.4195 H   0  0  0  0  0  0  0  0  0  0  0  0
   -3.9171   -3.2363   -0.0367 H   0  0  0  0  0  0  0  0  0  0  0  0
   -2.1203   -4.9208    0.8473 H   0  0  0  0  0  0  0  0  0  0  0  0
    0.1511   -3.5628    0.1564 H   0  0  0  0  0  0  0  0  0  0  0  0
   -0.1996   -3.3844    1.8870 H   0  0  0  0  0  0  0  0  0  0  0  0
   -1.0089   -0.5773    3.5979 H   0  0  0  0  0  0  0  0  0  0  0  0
   -2.5775   -0.5224    2.7399 H   0  0  0  0  0  0  0  0  0  0  0  0
   -2.2916    0.5337    4.1625 H   0  0  0  0  0  0  0  0  0  0  0  0
   -2.2139    3.0314    1.4553 H   0  0  0  0  0  0  0  0  0  0  0  0
   -3.0175    2.4475    2.9374 H   0  0  0  0  0  0  0  0  0  0  0  0
   -3.2342    1.5625    1.3871 H   0  0  0  0  0  0  0  0  0  0  0  0
    0.1985    2.8341    2.5012 H   0  0  0  0  0  0  0  0  0  0  0  0
    0.5681    1.4014    3.5064 H   0  0  0  0  0  0  0  0  0  0  0  0
   -0.7155    2.5381    4.0181 H   0  0  0  0  0  0  0  0  0  0  0  0
   -4.1628   -0.3561   -1.6115 H   0  0  0  0  0  0  0  0  0  0  0  0
   -4.1033   -2.0700   -2.1631 H   0  0  0  0  0  0  0  0  0  0  0  0
   -3.4776   -0.7600   -3.2207 H   0  0  0  0  0  0  0  0  0  0  0  0
   -0.2765   -2.2493   -1.9261 H   0  0  0  0  0  0  0  0  0  0  0  0
   -1.2643   -1.9635   -3.3898 H   0  0  0  0  0  0  0  0  0  0  0  0
   -1.7288   -3.2739   -2.2444 H   0  0  0  0  0  0  0  0  0  0  0  0
  1  4  1  0  0  0  0
  2 22  1  0  0  0  0
  3 12  1  0  0  0  0
  3 18  1  0  0  0  0
  4 25  1  6  0  0  0
  4  8  1  0  0  0  0
  5  4  1  0  0  0  0
  5  6  1  0  0  0  0
  6 26  1  0  0  0  0
  6  7  1  0  0  0  0
  7 29  1  0  0  0  0
  8 30  1  1  0  0  0
  8  9  1  0  0  0  0
  8  7  1  0  0  0  0
  9 32  1  0  0  0  0
 10 33  1  0  0  0  0
 10  5  1  0  0  0  0
 11 36  1  0  0  0  0
 11  5  1  0  0  0  0
 12  9  1  0  0  0  0
 13 17  1  0  0  0  0
 13 12  2  0  0  0  0
 14 15  1  0  0  0  0
 14 39  1  1  0  0  0
 14 13  1  0  0  0  0
 15 16  2  0  0  0  0
 16 41  1  0  0  0  0
 16 17  1  0  0  0  0
 17 43  1  0  0  0  0
 18 21  1  0  0  0  0
 18 19  1  0  0  0  0
 19 44  1  0  0  0  0
 19 46  1  0  0  0  0
 20 18  1  0  0  0  0
 20 48  1  0  0  0  0
 21 51  1  0  0  0  0
 21 52  1  0  0  0  0
 22 14  1  0  0  0  0
 23 54  1  0  0  0  0
 23 53  1  0  0  0  0
 23 22  1  0  0  0  0
 24 58  1  0  0  0  0
 24 56  1  0  0  0  0
 24 22  1  0  0  0  0
 27  6  1  0  0  0  0
 28  7  1  0  0  0  0
 31  9  1  0  0  0  0
 34 10  1  0  0  0  0
 35 10  1  0  0  0  0
 37 11  1  0  0  0  0
 38 11  1  0  0  0  0
 40 15  1  0  0  0  0
 42 17  1  0  0  0  0
 45 19  1  0  0  0  0
 47 20  1  0  0  0  0
 49 20  1  0  0  0  0
 50 21  1  0  0  0  0
 55 23  1  0  0  0  0
 57 24  1  0  0  0  0
M  END
