1,4,6
 OpenBabel05122313063D

 27 28  0  0  0  0  0  0  0  0999 V2000
    0.3960    0.9757   -1.8423 O   0  5  0  0  0  0  0  0  0  0  0  0
   -6.7138   -0.6370    1.2926 O   0  0  0  0  0  0  0  0  0  0  0  0
   -2.8800    1.6248    2.4540 O   0  0  0  0  0  0  0  0  0  0  0  0
   -2.0995   -0.6540   -2.3572 O   0  5  0  0  0  0  0  0  0  0  0  0
   -4.3062   -0.8844   -2.7363 O   0  0  0  0  0  0  0  0  0  0  0  0
   -1.6281    0.9670   -0.1016 N   0  0  0  0  0  2  0  0  0  0  0  0
   -4.9623   -0.5810   -0.2112 N   0  0  0  0  0  0  0  0  0  0  0  0
   -4.7472    0.4407    1.8537 N   0  0  0  0  0  0  0  0  0  0  0  0
   -1.2851    2.2285    0.0872 C   0  0  0  0  0  3  0  0  0  0  0  0
   -1.9996    2.8783    0.6190 H   0  0  0  0  0  0  0  0  0  0  0  0
   -3.3575   -0.6030   -2.0092 C   0  0  0  0  0  0  0  0  0  0  0  0
   -0.0845    2.8377   -0.4118 C   0  0  0  0  0  0  0  0  0  0  0  0
    0.7089    2.1977   -1.4187 C   0  0  0  0  0  0  0  0  0  0  0  0
    1.8021    2.8888   -1.9854 C   0  0  0  0  0  0  0  0  0  0  0  0
    2.3836    2.3910   -2.7728 H   0  0  0  0  0  0  0  0  0  0  0  0
    2.1330    4.1696   -1.5329 C   0  0  0  0  0  0  0  0  0  0  0  0
    2.9997    4.6884   -1.9702 H   0  0  0  0  0  0  0  0  0  0  0  0
    1.3673    4.8035   -0.5324 C   0  0  0  0  0  0  0  0  0  0  0  0
    1.6356    5.8117   -0.1854 H   0  0  0  0  0  0  0  0  0  0  0  0
    0.2613    4.1474    0.0060 C   0  0  0  0  0  0  0  0  0  0  0  0
   -0.3548    4.6317    0.7788 H   0  0  0  0  0  0  0  0  0  0  0  0
   -2.9297    0.5687    0.2844 C   0  0  0  0  0  0  0  0  0  0  0  0
   -3.7004   -0.1999   -0.5669 C   0  0  0  0  0  0  0  0  0  0  0  0
   -5.5818   -0.2948    1.0025 C   0  0  0  0  0  0  0  0  0  0  0  0
   -3.4645    0.9472    1.6085 C   0  0  0  0  0  0  0  0  0  0  0  0
   -5.5038   -1.0368   -0.9607 H   0  0  0  0  0  0  0  0  0  0  0  0
   -5.1501    0.6750    2.7661 H   0  0  0  0  0  0  0  0  0  0  0  0
  1 13  1  0  0  0  0
  4 11  1  0  0  0  0
  5 11  2  0  0  0  0
  6  9  1  0  0  0  0
  6 22  1  0  0  0  0
  7 24  1  0  0  0  0
  8 27  1  0  0  0  0
  9 10  1  0  0  0  0
 11 23  1  0  0  0  0
 12 20  1  0  0  0  0
 12  9  1  0  0  0  0
 13 12  2  0  0  0  0
 14 16  2  0  0  0  0
 14 13  1  0  0  0  0
 15 14  1  0  0  0  0
 16 18  1  0  0  0  0
 17 16  1  0  0  0  0
 18 19  1  0  0  0  0
 18 20  2  0  0  0  0
 20 21  1  0  0  0  0
 22 25  1  0  0  0  0
 23  7  1  0  0  0  0
 23 22  2  0  0  0  0
 24  2  2  0  0  0  0
 24  8  1  0  0  0  0
 25  8  1  0  0  0  0
 25  3  2  0  0  0  0
 26  7  1  0  0  0  0
M  CHG  2   1  -1   4  -1
M  END
