1,2,34
 OpenBabel05122313063D

 63 67  0  0  1  0  0  0  0  0999 V2000
   -0.0000   -0.5790   -0.0000 N   0  0  0  0  0  2  0  0  0  0  0  0
    1.8157    1.0302    0.2541 O   0  0  0  0  0  1  0  0  0  0  0  0
    3.4062   -0.5481    1.2352 C   0  0  2  0  0  0  0  0  0  0  0  0
    2.3706   -0.2428    0.0719 C   0  0  2  0  0  0  0  0  0  0  0  0
    3.3035   -0.2999   -1.2585 C   0  0  0  0  0  0  0  0  0  0  0  0
    4.7145   -0.5411   -0.6324 C   0  0  1  0  0  0  0  0  0  0  0  0
    5.4364   -0.9157   -1.3857 H   0  0  0  0  0  0  0  0  0  0  0  0
    5.2061    0.7041    0.1334 C   0  0  0  0  0  0  0  0  0  0  0  0
    5.1533    1.6298   -0.4685 H   0  0  0  0  0  0  0  0  0  0  0  0
    6.2679    0.5685    0.4219 H   0  0  0  0  0  0  0  0  0  0  0  0
    4.2803    0.7299    1.3806 C   0  0  0  0  0  0  0  0  0  0  0  0
    3.6486    1.6342    1.4416 H   0  0  0  0  0  0  0  0  0  0  0  0
    4.8606    0.6572    2.3225 H   0  0  0  0  0  0  0  0  0  0  0  0
    4.4061   -1.4957    0.5362 C   0  0  0  0  0  0  0  0  0  0  0  0
    5.2903   -1.7020    1.1740 H   0  0  0  0  0  0  0  0  0  0  0  0
    3.9867   -2.4715    0.2242 H   0  0  0  0  0  0  0  0  0  0  0  0
    2.9648   -1.4509   -2.2221 C   0  0  0  0  0  0  0  0  0  0  0  0
    3.6143   -1.3740   -3.1177 H   0  0  0  0  0  0  0  0  0  0  0  0
    1.9135   -1.3977   -2.5704 H   0  0  0  0  0  0  0  0  0  0  0  0
    3.1276   -2.4563   -1.7895 H   0  0  0  0  0  0  0  0  0  0  0  0
    3.1833    1.0075   -2.0516 C   0  0  0  0  0  0  0  0  0  0  0  0
    3.9498    1.0264   -2.8538 H   0  0  0  0  0  0  0  0  0  0  0  0
    3.3049    1.9049   -1.4211 H   0  0  0  0  0  0  0  0  0  0  0  0
    2.1878    1.0931   -2.5301 H   0  0  0  0  0  0  0  0  0  0  0  0
    2.7674   -0.9806    2.5473 C   0  0  0  0  0  0  0  0  0  0  0  0
    2.0433   -0.2132    2.8914 H   0  0  0  0  0  0  0  0  0  0  0  0
    3.5379   -1.0927    3.3367 H   0  0  0  0  0  0  0  0  0  0  0  0
    2.2280   -1.9451    2.4653 H   0  0  0  0  0  0  0  0  0  0  0  0
    1.1944   -1.2131    0.0433 C   0  0  1  0  0  3  0  0  0  0  0  0
    1.2147   -2.6165    0.0646 C   0  0  0  0  0  0  0  0  0  0  0  0
    2.1630   -3.1616    0.1278 H   0  0  0  0  0  0  0  0  0  0  0  0
    0.0000   -3.3109   -0.0000 C   0  0  0  0  0  0  0  0  0  0  0  0
    0.0000   -4.4114   -0.0000 H   0  0  0  0  0  0  0  0  0  0  0  0
   -1.8157    1.0302   -0.2541 O   0  0  0  0  0  1  0  0  0  0  0  0
   -3.4062   -0.5481   -1.2352 C   0  0  2  0  0  0  0  0  0  0  0  0
   -2.3706   -0.2428   -0.0719 C   0  0  2  0  0  0  0  0  0  0  0  0
   -3.3035   -0.2999    1.2585 C   0  0  0  0  0  0  0  0  0  0  0  0
   -4.7145   -0.5411    0.6324 C   0  0  1  0  0  0  0  0  0  0  0  0
   -5.4364   -0.9157    1.3857 H   0  0  0  0  0  0  0  0  0  0  0  0
   -5.2061    0.7041   -0.1334 C   0  0  0  0  0  0  0  0  0  0  0  0
   -5.1533    1.6298    0.4685 H   0  0  0  0  0  0  0  0  0  0  0  0
   -6.2679    0.5685   -0.4219 H   0  0  0  0  0  0  0  0  0  0  0  0
   -4.2803    0.7299   -1.3806 C   0  0  0  0  0  0  0  0  0  0  0  0
   -3.6486    1.6342   -1.4416 H   0  0  0  0  0  0  0  0  0  0  0  0
   -4.8606    0.6572   -2.3225 H   0  0  0  0  0  0  0  0  0  0  0  0
   -4.4061   -1.4957   -0.5362 C   0  0  0  0  0  0  0  0  0  0  0  0
   -5.2903   -1.7020   -1.1740 H   0  0  0  0  0  0  0  0  0  0  0  0
   -3.9867   -2.4715   -0.2242 H   0  0  0  0  0  0  0  0  0  0  0  0
   -2.9648   -1.4509    2.2221 C   0  0  0  0  0  0  0  0  0  0  0  0
   -3.6143   -1.3740    3.1177 H   0  0  0  0  0  0  0  0  0  0  0  0
   -1.9135   -1.3978    2.5703 H   0  0  0  0  0  0  0  0  0  0  0  0
   -3.1276   -2.4564    1.7895 H   0  0  0  0  0  0  0  0  0  0  0  0
   -3.1833    1.0075    2.0517 C   0  0  0  0  0  0  0  0  0  0  0  0
   -3.9498    1.0264    2.8538 H   0  0  0  0  0  0  0  0  0  0  0  0
   -3.3049    1.9049    1.4212 H   0  0  0  0  0  0  0  0  0  0  0  0
   -2.1878    1.0930    2.5301 H   0  0  0  0  0  0  0  0  0  0  0  0
   -2.7674   -0.9806   -2.5473 C   0  0  0  0  0  0  0  0  0  0  0  0
   -2.0433   -0.2131   -2.8914 H   0  0  0  0  0  0  0  0  0  0  0  0
   -3.5379   -1.0927   -3.3367 H   0  0  0  0  0  0  0  0  0  0  0  0
   -2.2280   -1.9451   -2.4653 H   0  0  0  0  0  0  0  0  0  0  0  0
   -1.1944   -1.2132   -0.0434 C   0  0  0  0  0  0  0  0  0  0  0  0
   -1.2147   -2.6165   -0.0646 C   0  0  0  0  0  0  0  0  0  0  0  0
   -2.1630   -3.1616   -0.1278 H   0  0  0  0  0  0  0  0  0  0  0  0
  3 11  1  0  0  0  0
  3 25  1  1  0  0  0
  4  2  1  1  0  0  0
  4  3  1  0  0  0  0
  5  6  1  0  0  0  0
  5  4  1  0  0  0  0
  6  7  1  6  0  0  0
  6  8  1  0  0  0  0
  6 14  1  0  0  0  0
  8 10  1  0  0  0  0
  8 11  1  0  0  0  0
  9  8  1  0  0  0  0
 11 12  1  0  0  0  0
 11 13  1  0  0  0  0
 14 15  1  0  0  0  0
 14  3  1  0  0  0  0
 16 14  1  0  0  0  0
 17 20  1  0  0  0  0
 17  5  1  0  0  0  0
 18 17  1  0  0  0  0
 19 17  1  0  0  0  0
 21 23  1  0  0  0  0
 21  5  1  0  0  0  0
 22 21  1  0  0  0  0
 24 21  1  0  0  0  0
 25 26  1  0  0  0  0
 25 27  1  0  0  0  0
 28 25  1  0  0  0  0
 29  1  1  1  0  0  0
 29 30  1  0  0  0  0
 29  4  1  0  0  0  0
 30 31  1  0  0  0  0
 32 30  2  0  0  0  0
 33 32  1  0  0  0  0
 35 57  1  6  0  0  0
 35 46  1  0  0  0  0
 35 36  1  0  0  0  0
 36 34  1  6  0  0  0
 36 61  1  0  0  0  0
 36 37  1  0  0  0  0
 37 53  1  0  0  0  0
 37 49  1  0  0  0  0
 38 37  1  0  0  0  0
 38 39  1  1  0  0  0
 40 41  1  0  0  0  0
 40 38  1  0  0  0  0
 42 40  1  0  0  0  0
 43 35  1  0  0  0  0
 43 40  1  0  0  0  0
 44 43  1  0  0  0  0
 45 43  1  0  0  0  0
 46 48  1  0  0  0  0
 46 38  1  0  0  0  0
 47 46  1  0  0  0  0
 49 51  1  0  0  0  0
 49 50  1  0  0  0  0
 52 49  1  0  0  0  0
 53 56  1  0  0  0  0
 53 54  1  0  0  0  0
 55 53  1  0  0  0  0
 57 60  1  0  0  0  0
 58 57  1  0  0  0  0
 59 57  1  0  0  0  0
 61  1  1  0  0  0  0
 62 61  2  0  0  0  0
 62 32  1  0  0  0  0
 63 62  1  0  0  0  0
M  END
