2,4,5
 OpenBabel05122313063D

 29 30  0  0  0  0  0  0  0  0999 V2000
   -7.3237   -0.8971    1.4041 Cl  0  0  0  0  0  0  0  0  0  0  0  0
   -1.0640   -1.3782    0.0524 N   0  0  0  0  0  2  0  0  0  0  0  0
   -0.0454   -2.1847    0.4488 N   0  0  0  0  0  0  0  0  0  0  0  0
   -2.1877    0.8520   -0.8967 O   0  5  0  0  0  0  0  0  0  0  0  0
    1.0559   -0.9075   -1.1076 O   0  5  0  0  0  0  0  0  0  0  0  0
    5.8914   -4.6590    0.6384 O   0  0  0  0  0  0  0  0  0  0  0  0
   -3.4141   -0.7853    0.3515 C   0  0  0  0  0  0  0  0  0  0  0  0
   -3.3339    0.4337   -0.4005 C   0  0  0  0  0  0  0  0  0  0  0  0
   -4.5054    1.2125   -0.5663 C   0  0  0  0  0  0  0  0  0  0  0  0
   -4.4276    2.1467   -1.1401 H   0  0  0  0  0  0  0  0  0  0  0  0
   -5.7218    0.8035   -0.0186 C   0  0  0  0  0  0  0  0  0  0  0  0
   -6.6289    1.4088   -0.1566 H   0  0  0  0  0  0  0  0  0  0  0  0
   -5.7945   -0.3966    0.7212 C   0  0  0  0  0  0  0  0  0  0  0  0
   -4.6565   -1.1786    0.9114 C   0  0  0  0  0  0  0  0  0  0  0  0
   -4.7204   -2.1087    1.4945 H   0  0  0  0  0  0  0  0  0  0  0  0
   -2.2424   -1.5786    0.6000 C   0  0  0  0  0  3  0  0  0  0  0  0
   -2.3096   -2.4218    1.3115 H   0  0  0  0  0  0  0  0  0  0  0  0
    1.0520   -1.8735   -0.2249 C   0  0  0  0  0  0  0  0  0  0  0  0
    2.2997   -2.6144    0.0155 C   0  0  0  0  0  0  0  0  0  0  0  0
    3.4728   -2.2738   -0.6948 C   0  0  0  0  0  0  0  0  0  0  0  0
    3.4235   -1.4527   -1.4241 H   0  0  0  0  0  0  0  0  0  0  0  0
    4.6659   -2.9637   -0.4783 C   0  0  0  0  0  0  0  0  0  0  0  0
    5.5846   -2.7093   -1.0260 H   0  0  0  0  0  0  0  0  0  0  0  0
    4.7082   -4.0160    0.4607 C   0  0  0  0  0  0  0  0  0  0  0  0
    3.5401   -4.3630    1.1751 C   0  0  0  0  0  0  0  0  0  0  0  0
    3.5734   -5.1861    1.9085 H   0  0  0  0  0  0  0  0  0  0  0  0
    2.3496   -3.6690    0.9534 C   0  0  0  0  0  0  0  0  0  0  0  0
    1.4336   -3.9289    1.5023 H   0  0  0  0  0  0  0  0  0  0  0  0
    5.7663   -5.3582    1.3071 H   0  0  0  0  0  0  0  0  0  0  0  0
  2  3  1  0  0  0  0
  2 16  1  0  0  0  0
  4  8  1  0  0  0  0
  5 18  1  0  0  0  0
  6 29  1  0  0  0  0
  7 16  1  0  0  0  0
  7 14  1  0  0  0  0
  8  7  2  0  0  0  0
  9  8  1  0  0  0  0
  9 11  2  0  0  0  0
 10  9  1  0  0  0  0
 11 13  1  0  0  0  0
 12 11  1  0  0  0  0
 13 14  2  0  0  0  0
 13  1  1  0  0  0  0
 14 15  1  0  0  0  0
 16 17  1  0  0  0  0
 18 19  1  0  0  0  0
 18  3  2  0  0  0  0
 19 27  1  0  0  0  0
 20 22  1  0  0  0  0
 20 19  2  0  0  0  0
 21 20  1  0  0  0  0
 22 24  2  0  0  0  0
 23 22  1  0  0  0  0
 24  6  1  0  0  0  0
 24 25  1  0  0  0  0
 25 26  1  0  0  0  0
 27 25  2  0  0  0  0
 27 28  1  0  0  0  0
M  CHG  2   4  -1   5  -1
M  END
