7,10,11
 OpenBabel05122313063D

 48 50  0  0  0  0  0  0  0  0999 V2000
    3.8432    1.1742    0.0253 N   0  0  0  0  0  0  0  0  0  0  0  0
    6.8959   -0.9151    0.0537 C   0  0  0  0  0  0  0  0  0  0  0  0
    4.7039    0.1460    0.0185 N   0  0  0  0  0  0  0  0  0  0  0  0
    4.3446   -0.8174   -0.0702 H   0  0  0  0  0  0  0  0  0  0  0  0
    6.4231   -2.1389    0.5737 C   0  0  0  0  0  0  0  0  0  0  0  0
    5.4110   -2.2135    1.0016 H   0  0  0  0  0  0  0  0  0  0  0  0
   -0.1516    0.3262   -0.1103 O   0  5  0  0  0  0  0  0  0  0  0  0
    7.2547   -3.2683    0.5966 C   0  0  0  0  0  0  0  0  0  0  0  0
    6.8793   -4.2153    1.0133 H   0  0  0  0  0  0  0  0  0  0  0  0
   -2.6991    1.1074   -0.1871 N   0  0  0  0  0  2  0  0  0  0  0  0
   -3.4933   -1.2287   -0.2540 O   0  5  0  0  0  0  0  0  0  0  0  0
    6.5926    1.4646   -0.0531 O   0  0  0  0  0  0  0  0  0  0  0  0
    8.5660   -3.1865    0.1026 C   0  0  0  0  0  0  0  0  0  0  0  0
    9.2168   -4.0740    0.1193 H   0  0  0  0  0  0  0  0  0  0  0  0
   -4.0567    0.9950   -0.1246 N   0  0  0  0  0  0  0  0  0  0  0  0
    9.0490   -1.9669   -0.4016 C   0  0  0  0  0  0  0  0  0  0  0  0
   10.0798   -1.8973   -0.7809 H   0  0  0  0  0  0  0  0  0  0  0  0
    8.2223   -0.8375   -0.4178 C   0  0  0  0  0  0  0  0  0  0  0  0
    8.5781    0.1344   -0.7903 H   0  0  0  0  0  0  0  0  0  0  0  0
    6.0856    0.3537    0.0082 C   0  0  0  0  0  0  0  0  0  0  0  0
    2.5777    0.9006   -0.0340 C   0  0  0  0  0  0  0  0  0  0  0  0
    2.2014   -0.1458   -0.0897 H   0  0  0  0  0  0  0  0  0  0  0  0
    1.5729    1.9583   -0.0338 C   0  0  0  0  0  0  0  0  0  0  0  0
    1.9280    3.3205    0.0136 C   0  0  0  0  0  0  0  0  0  0  0  0
    3.0035    3.5551    0.0491 H   0  0  0  0  0  0  0  0  0  0  0  0
    0.9687    4.3530    0.0161 C   0  0  0  0  0  0  0  0  0  0  0  0
   -0.3840    3.9887   -0.0274 C   0  0  0  0  0  0  0  0  0  0  0  0
   -1.1609    4.7703   -0.0243 H   0  0  0  0  0  0  0  0  0  0  0  0
   -0.7960    2.6333   -0.0796 C   0  0  0  0  0  0  0  0  0  0  0  0
    0.1917    1.6000   -0.0826 C   0  0  0  0  0  0  0  0  0  0  0  0
    1.3991    5.7979    0.0620 C   0  0  0  0  0  0  0  0  0  0  0  0
    2.0226    6.0042    0.9564 H   0  0  0  0  0  0  0  0  0  0  0  0
    0.5299    6.4829    0.0877 H   0  0  0  0  0  0  0  0  0  0  0  0
    2.0137    6.0625   -0.8235 H   0  0  0  0  0  0  0  0  0  0  0  0
   -2.1970    2.3175   -0.0913 C   0  0  0  0  0  3  0  0  0  0  0  0
   -2.9268    3.1441   -0.0042 H   0  0  0  0  0  0  0  0  0  0  0  0
   -4.3962   -0.2809   -0.1833 C   0  0  0  0  0  0  0  0  0  0  0  0
   -5.8207   -0.6685   -0.1345 C   0  0  0  0  0  0  0  0  0  0  0  0
   -6.8308    0.3125   -0.0203 C   0  0  0  0  0  0  0  0  0  0  0  0
   -6.5329    1.3695    0.0264 H   0  0  0  0  0  0  0  0  0  0  0  0
   -8.1754   -0.0705    0.0303 C   0  0  0  0  0  0  0  0  0  0  0  0
   -8.9596    0.6967    0.1188 H   0  0  0  0  0  0  0  0  0  0  0  0
   -8.5267   -1.4309   -0.0325 C   0  0  0  0  0  0  0  0  0  0  0  0
   -9.5857   -1.7284    0.0070 H   0  0  0  0  0  0  0  0  0  0  0  0
   -7.5255   -2.4092   -0.1475 C   0  0  0  0  0  0  0  0  0  0  0  0
   -7.7992   -3.4740   -0.1996 H   0  0  0  0  0  0  0  0  0  0  0  0
   -6.1772   -2.0324   -0.1987 C   0  0  0  0  0  0  0  0  0  0  0  0
   -5.3783   -2.7815   -0.2932 H   0  0  0  0  0  0  0  0  0  0  0  0
  2  5  1  0  0  0  0
  3  1  1  0  0  0  0
  4  3  1  0  0  0  0
  5  8  2  0  0  0  0
  5  6  1  0  0  0  0
  7 30  1  0  0  0  0
  8  9  1  0  0  0  0
 10 15  1  0  0  0  0
 10 35  1  0  0  0  0
 11 37  1  0  0  0  0
 12 20  2  0  0  0  0
 13 14  1  0  0  0  0
 13  8  1  0  0  0  0
 16 13  2  0  0  0  0
 17 16  1  0  0  0  0
 18 16  1  0  0  0  0
 18  2  2  0  0  0  0
 19 18  1  0  0  0  0
 20  3  1  0  0  0  0
 20  2  1  0  0  0  0
 21 23  1  0  0  0  0
 21  1  2  0  0  0  0
 22 21  1  0  0  0  0
 23 24  1  0  0  0  0
 24 26  2  0  0  0  0
 24 25  1  0  0  0  0
 26 31  1  0  0  0  0
 27 28  1  0  0  0  0
 27 26  1  0  0  0  0
 29 27  2  0  0  0  0
 30 29  1  0  0  0  0
 30 23  2  0  0  0  0
 31 33  1  0  0  0  0
 31 32  1  0  0  0  0
 34 31  1  0  0  0  0
 35 29  1  0  0  0  0
 35 36  1  0  0  0  0
 37 38  1  0  0  0  0
 37 15  2  0  0  0  0
 38 39  1  0  0  0  0
 39 40  1  0  0  0  0
 39 41  2  0  0  0  0
 41 42  1  0  0  0  0
 43 44  1  0  0  0  0
 43 41  1  0  0  0  0
 45 43  2  0  0  0  0
 46 45  1  0  0  0  0
 47 45  1  0  0  0  0
 47 38  2  0  0  0  0
 48 47  1  0  0  0  0
M  CHG  2   7  -1  11  -1
M  END
