1,2,3
 OpenBabel05122313063D

 27 27  0  0  1  0  0  0  0  0999 V2000
   -2.1360   -1.0425   -1.0098 O   0  5  0  0  0  0  0  0  0  0  0  0
    1.3365   -1.4045    0.2040 O   0  5  0  0  0  0  0  0  0  0  0  0
   -0.3303    0.6495   -0.4311 N   0  0  0  0  0  2  0  0  0  0  0  0
    2.2920   -0.5426    0.0490 C   0  0  0  0  0  0  0  0  0  0  0  0
    3.6435   -0.9463    0.3011 C   0  0  0  0  0  0  0  0  0  0  0  0
    3.7935   -1.9811    0.6429 H   0  0  0  0  0  0  0  0  0  0  0  0
    4.7134   -0.0757    0.1133 C   0  0  0  0  0  0  0  0  0  0  0  0
    5.7381   -0.4284    0.3164 H   0  0  0  0  0  0  0  0  0  0  0  0
    4.5065    1.2505   -0.3356 C   0  0  0  0  0  0  0  0  0  0  0  0
    5.3577    1.9319   -0.4830 H   0  0  0  0  0  0  0  0  0  0  0  0
    3.2026    1.6757   -0.5827 C   0  0  0  0  0  0  0  0  0  0  0  0
    3.0098    2.7065   -0.9264 H   0  0  0  0  0  0  0  0  0  0  0  0
    2.0895    0.8185   -0.3932 C   0  0  0  0  0  0  0  0  0  0  0  0
    0.7598    1.3228   -0.6293 C   0  0  0  0  0  3  0  0  0  0  0  0
    0.6874    2.3749   -0.9946 H   0  0  0  0  0  0  0  0  0  0  0  0
   -1.6181    1.2601   -0.6498 C   0  0  1  0  0  0  0  0  0  0  0  0
   -1.5500    2.1273   -1.3476 H   0  0  0  0  0  0  0  0  0  0  0  0
   -2.5426    0.1803   -1.2571 C   0  0  0  0  0  0  0  0  0  0  0  0
   -3.5467    0.4893   -1.8863 O   0  0  0  0  0  0  0  0  0  0  0  0
   -2.2860    1.7873    0.6766 C   0  0  2  0  0  0  0  0  0  0  0  0
   -3.1080    2.4422    0.3067 H   0  0  0  0  0  0  0  0  0  0  0  0
   -1.3067    2.6247    1.5076 C   0  0  0  0  0  0  0  0  0  0  0  0
   -1.8426    3.0531    2.3776 H   0  0  0  0  0  0  0  0  0  0  0  0
   -0.8539    3.4554    0.9252 H   0  0  0  0  0  0  0  0  0  0  0  0
   -0.4890    1.9815    1.8913 H   0  0  0  0  0  0  0  0  0  0  0  0
   -2.9021    0.7907    1.4407 O   0  0  0  0  0  0  0  0  0  0  0  0
   -2.2335    0.0709    1.6367 H   0  0  0  0  0  0  0  0  0  0  0  0
  4  2  1  0  0  0  0
  4  5  1  0  0  0  0
  5  6  1  0  0  0  0
  7  5  2  0  0  0  0
  7  8  1  0  0  0  0
  9  7  1  0  0  0  0
 10  9  1  0  0  0  0
 11 13  1  0  0  0  0
 11  9  2  0  0  0  0
 12 11  1  0  0  0  0
 13  4  2  0  0  0  0
 14  3  1  0  0  0  0
 14 13  1  0  0  0  0
 15 14  1  0  0  0  0
 16 17  1  6  0  0  0
 16  3  1  0  0  0  0
 16 20  1  0  0  0  0
 18  1  1  0  0  0  0
 18 16  1  0  0  0  0
 19 18  2  0  0  0  0
 20 21  1  6  0  0  0
 20 26  1  0  0  0  0
 20 22  1  0  0  0  0
 22 25  1  0  0  0  0
 22 23  1  0  0  0  0
 24 22  1  0  0  0  0
 26 27  1  0  0  0  0
M  CHG  2   1  -1   2  -1
M  END
