1,3,4
 OpenBabel05122313063D

 29 29  0  0  1  0  0  0  0  0999 V2000
    1.2903   -1.1811    0.7355 O   0  5  0  0  0  0  0  0  0  0  0  0
   -3.8381    0.3836   -1.4328 O   0  5  0  0  0  0  0  0  0  0  0  0
   -2.2849   -1.1339   -0.8000 O   0  0  0  0  0  0  0  0  0  0  0  0
   -0.4202    0.5596   -0.4119 N   0  0  0  0  0  2  0  0  0  0  0  0
    0.6589    1.2163   -0.7269 C   0  0  0  0  0  3  0  0  0  0  0  0
    0.5507    2.2157   -1.2094 H   0  0  0  0  0  0  0  0  0  0  0  0
    2.0049    0.7811   -0.4673 C   0  0  0  0  0  0  0  0  0  0  0  0
    3.0965    1.5809   -0.8924 C   0  0  0  0  0  0  0  0  0  0  0  0
    2.8788    2.4823   -1.4909 H   0  0  0  0  0  0  0  0  0  0  0  0
    4.4103    1.2564   -0.5639 C   0  0  0  0  0  0  0  0  0  0  0  0
    5.2477    1.8820   -0.9074 H   0  0  0  0  0  0  0  0  0  0  0  0
    4.6472    0.1082    0.2330 C   0  0  0  0  0  0  0  0  0  0  0  0
    5.6820   -0.1576    0.5063 H   0  0  0  0  0  0  0  0  0  0  0  0
    3.6005   -0.6936    0.6753 C   0  0  0  0  0  0  0  0  0  0  0  0
    3.7770   -1.5883    1.2906 H   0  0  0  0  0  0  0  0  0  0  0  0
    2.2374   -0.4094    0.3253 C   0  0  0  0  0  0  0  0  0  0  0  0
   -1.7155    1.1760   -0.6157 C   0  0  1  0  0  0  0  0  0  0  0  0
   -1.6789    1.9255   -1.4412 H   0  0  0  0  0  0  0  0  0  0  0  0
   -2.7254    0.0688   -1.0086 C   0  0  0  0  0  0  0  0  0  0  0  0
   -2.2360    1.9109    0.6536 C   0  0  0  0  0  0  0  0  0  0  0  0
   -3.2676    2.2118    0.3654 H   0  0  0  0  0  0  0  0  0  0  0  0
   -1.4194    3.1700    0.9595 C   0  0  0  0  0  0  0  0  0  0  0  0
   -1.8575    3.7251    1.8153 H   0  0  0  0  0  0  0  0  0  0  0  0
   -1.3822    3.8593    0.0898 H   0  0  0  0  0  0  0  0  0  0  0  0
   -0.3741    2.9152    1.2355 H   0  0  0  0  0  0  0  0  0  0  0  0
   -2.3133    0.9866    1.8741 C   0  0  0  0  0  0  0  0  0  0  0  0
   -1.3050    0.6429    2.1823 H   0  0  0  0  0  0  0  0  0  0  0  0
   -2.9050    0.0739    1.6678 H   0  0  0  0  0  0  0  0  0  0  0  0
   -2.7736    1.5167    2.7338 H   0  0  0  0  0  0  0  0  0  0  0  0
  2 19  1  0  0  0  0
  5  7  1  0  0  0  0
  5  4  1  0  0  0  0
  6  5  1  0  0  0  0
  7 16  1  0  0  0  0
  8 10  1  0  0  0  0
  8  7  2  0  0  0  0
  9  8  1  0  0  0  0
 10 12  2  0  0  0  0
 11 10  1  0  0  0  0
 12 13  1  0  0  0  0
 12 14  1  0  0  0  0
 14 15  1  0  0  0  0
 16 14  2  0  0  0  0
 16  1  1  0  0  0  0
 17 18  1  6  0  0  0
 17  4  1  0  0  0  0
 17 20  1  0  0  0  0
 19  3  2  0  0  0  0
 19 17  1  0  0  0  0
 20 22  1  0  0  0  0
 20 26  1  0  0  0  0
 21 20  1  0  0  0  0
 22 25  1  0  0  0  0
 22 23  1  0  0  0  0
 24 22  1  0  0  0  0
 26 27  1  0  0  0  0
 26 29  1  0  0  0  0
 28 26  1  0  0  0  0
M  CHG  2   1  -1   2  -1
M  END
