1,3,4
 OpenBabel05122313063D

 32 32  0  0  1  0  0  0  0  0999 V2000
   -1.4551    0.8949   -0.9265 O   0  5  0  0  0  0  0  0  0  0  0  0
    3.4653    0.3967    2.0686 O   0  5  0  0  0  0  0  0  0  0  0  0
    1.9253    1.5428    0.8744 O   0  0  0  0  0  0  0  0  0  0  0  0
    0.1944   -0.3285    0.8200 N   0  0  0  0  0  2  0  0  0  0  0  0
   -0.8755   -0.9734    1.1834 C   0  0  0  0  0  3  0  0  0  0  0  0
   -0.7698   -1.8034    1.9215 H   0  0  0  0  0  0  0  0  0  0  0  0
   -2.2007   -0.7430    0.6761 C   0  0  0  0  0  0  0  0  0  0  0  0
   -3.2904   -1.4941    1.1862 C   0  0  0  0  0  0  0  0  0  0  0  0
   -3.0963   -2.1929    2.0181 H   0  0  0  0  0  0  0  0  0  0  0  0
   -4.5727   -1.3707    0.6575 C   0  0  0  0  0  0  0  0  0  0  0  0
   -5.4096   -1.9553    1.0677 H   0  0  0  0  0  0  0  0  0  0  0  0
   -4.7773   -0.4820   -0.4278 C   0  0  0  0  0  0  0  0  0  0  0  0
   -5.7865   -0.3775   -0.8598 H   0  0  0  0  0  0  0  0  0  0  0  0
   -3.7306    0.2640   -0.9588 C   0  0  0  0  0  0  0  0  0  0  0  0
   -3.8818    0.9570   -1.7996 H   0  0  0  0  0  0  0  0  0  0  0  0
   -2.4030    0.1833   -0.4190 C   0  0  0  0  0  0  0  0  0  0  0  0
    1.4836   -0.7593    1.3318 C   0  0  2  0  0  0  0  0  0  0  0  0
    1.3737   -1.2130    2.3447 H   0  0  0  0  0  0  0  0  0  0  0  0
    2.3949    0.4873    1.4675 C   0  0  0  0  0  0  0  0  0  0  0  0
    2.1874   -1.8039    0.4377 C   0  0  0  0  0  0  0  0  0  0  0  0
    1.6218   -2.7636    0.4754 H   0  0  0  0  0  0  0  0  0  0  0  0
    3.1616   -1.9794    0.9415 H   0  0  0  0  0  0  0  0  0  0  0  0
    2.4298   -1.4035   -1.0341 C   0  0  0  0  0  0  0  0  0  0  0  0
    2.6217   -0.3083   -1.0717 H   0  0  0  0  0  0  0  0  0  0  0  0
    3.6740   -2.1204   -1.5752 C   0  0  0  0  0  0  0  0  0  0  0  0
    3.5497   -3.2255   -1.5313 H   0  0  0  0  0  0  0  0  0  0  0  0
    4.5785   -1.8593   -0.9878 H   0  0  0  0  0  0  0  0  0  0  0  0
    3.8643   -1.8492   -2.6345 H   0  0  0  0  0  0  0  0  0  0  0  0
    1.2151   -1.6754   -1.9318 C   0  0  0  0  0  0  0  0  0  0  0  0
    0.9611   -2.7591   -1.9354 H   0  0  0  0  0  0  0  0  0  0  0  0
    1.4255   -1.3669   -2.9761 H   0  0  0  0  0  0  0  0  0  0  0  0
    0.3245   -1.1072   -1.6057 H   0  0  0  0  0  0  0  0  0  0  0  0
  1 16  1  0  0  0  0
  3 19  2  0  0  0  0
  4  5  1  0  0  0  0
  4 17  1  0  0  0  0
  5  6  1  0  0  0  0
  7  5  1  0  0  0  0
  7  8  1  0  0  0  0
  8  9  1  0  0  0  0
 10 11  1  0  0  0  0
 10  8  2  0  0  0  0
 12 10  1  0  0  0  0
 13 12  1  0  0  0  0
 14 12  2  0  0  0  0
 14 16  1  0  0  0  0
 15 14  1  0  0  0  0
 16  7  2  0  0  0  0
 17 19  1  0  0  0  0
 17 18  1  1  0  0  0
 19  2  1  0  0  0  0
 20 21  1  0  0  0  0
 20 22  1  0  0  0  0
 20 17  1  0  0  0  0
 23 20  1  0  0  0  0
 24 23  1  0  0  0  0
 25 26  1  0  0  0  0
 25 23  1  0  0  0  0
 25 27  1  0  0  0  0
 28 25  1  0  0  0  0
 29 32  1  0  0  0  0
 29 23  1  0  0  0  0
 30 29  1  0  0  0  0
 31 29  1  0  0  0  0
M  CHG  2   1  -1   2  -1
M  END
