29,30,32
 OpenBabel05122313063D

 32 32  0  0  1  0  0  0  0  0999 V2000
   -2.4324   -0.4218   -1.3725 C   0  0  0  0  0  0  0  0  0  0  0  0
   -1.5538    0.8194   -1.0755 C   0  0  1  0  0  0  0  0  0  0  0  0
   -1.4925    1.4331   -2.0050 H   0  0  0  0  0  0  0  0  0  0  0  0
    0.8119    1.0531   -0.9864 C   0  0  0  0  0  3  0  0  0  0  0  0
    0.6810    1.9502   -1.6355 H   0  0  0  0  0  0  0  0  0  0  0  0
    2.1518    0.7858   -0.5369 C   0  0  0  0  0  0  0  0  0  0  0  0
    2.3855   -0.2352    0.4644 C   0  0  0  0  0  0  0  0  0  0  0  0
    3.7208   -0.3362    0.9815 C   0  0  0  0  0  0  0  0  0  0  0  0
    3.8959   -1.1000    1.7536 H   0  0  0  0  0  0  0  0  0  0  0  0
    4.7474    0.4734    0.5074 C   0  0  0  0  0  0  0  0  0  0  0  0
    5.7641    0.3487    0.9158 H   0  0  0  0  0  0  0  0  0  0  0  0
    4.5131    1.4516   -0.4915 C   0  0  0  0  0  0  0  0  0  0  0  0
    5.3344    2.0855   -0.8578 H   0  0  0  0  0  0  0  0  0  0  0  0
    3.2211    1.6003   -0.9895 C   0  0  0  0  0  0  0  0  0  0  0  0
    3.0028    2.3703   -1.7495 H   0  0  0  0  0  0  0  0  0  0  0  0
   -2.2484    1.6919    0.0102 C   0  0  1  0  0  0  0  0  0  0  0  0
   -3.2775    1.8290   -0.3924 H   0  0  0  0  0  0  0  0  0  0  0  0
   -2.3483    0.9571    1.3598 C   0  0  0  0  0  0  0  0  0  0  0  0
   -1.3300    0.8503    1.7922 H   0  0  0  0  0  0  0  0  0  0  0  0
   -2.6875   -0.0848    1.1872 H   0  0  0  0  0  0  0  0  0  0  0  0
   -3.2779    1.6261    2.3727 C   0  0  0  0  0  0  0  0  0  0  0  0
   -2.9303    2.6395    2.6655 H   0  0  0  0  0  0  0  0  0  0  0  0
   -3.3497    1.0239    3.3011 H   0  0  0  0  0  0  0  0  0  0  0  0
   -4.3058    1.7347    1.9648 H   0  0  0  0  0  0  0  0  0  0  0  0
   -1.5788    3.0635    0.1411 C   0  0  0  0  0  0  0  0  0  0  0  0
   -2.1345    3.7207    0.8405 H   0  0  0  0  0  0  0  0  0  0  0  0
   -1.5266    3.5855   -0.8372 H   0  0  0  0  0  0  0  0  0  0  0  0
   -0.5430    2.9689    0.5309 H   0  0  0  0  0  0  0  0  0  0  0  0
   -0.2424    0.3607   -0.6644 N   0  0  0  0  0  2  0  0  0  0  0  0
   -1.9223   -1.5352   -0.9424 O   0  5  0  0  0  0  0  0  0  0  0  0
   -3.5189   -0.2771   -1.9341 O   0  0  0  0  0  0  0  0  0  0  0  0
    1.4586   -1.0117    0.9113 O   0  5  0  0  0  0  0  0  0  0  0  0
  1  2  1  0  0  0  0
  1 30  1  0  0  0  0
  2  3  1  6  0  0  0
  2 29  1  0  0  0  0
  2 16  1  0  0  0  0
  4 29  1  0  0  0  0
  4  6  1  0  0  0  0
  5  4  1  0  0  0  0
  6  7  1  0  0  0  0
  7 32  1  0  0  0  0
  7  8  2  0  0  0  0
  8  9  1  0  0  0  0
 10 11  1  0  0  0  0
 10  8  1  0  0  0  0
 12 10  2  0  0  0  0
 13 12  1  0  0  0  0
 14  6  2  0  0  0  0
 14 12  1  0  0  0  0
 15 14  1  0  0  0  0
 16 17  1  6  0  0  0
 16 25  1  0  0  0  0
 16 18  1  0  0  0  0
 18 19  1  0  0  0  0
 18 21  1  0  0  0  0
 20 18  1  0  0  0  0
 21 22  1  0  0  0  0
 21 23  1  0  0  0  0
 24 21  1  0  0  0  0
 25 28  1  0  0  0  0
 25 26  1  0  0  0  0
 27 25  1  0  0  0  0
 31  1  2  0  0  0  0
M  CHG  2  30  -1  32  -1
M  END
