2,4,5
 OpenBabel05122313063D

 33 34  0  0  1  0  0  0  0  0999 V2000
   -6.6368    3.5954    0.3878 Cl  0  0  0  0  0  0  0  0  0  0  0  0
    0.7652   -3.3797   -0.8777 O   0  5  0  0  0  0  0  0  0  0  0  0
    1.7671   -4.1582    0.9997 O   0  0  0  0  0  0  0  0  0  0  0  0
   -1.9096   -0.8343   -1.4553 O   0  5  0  0  0  0  0  0  0  0  0  0
   -0.9977   -2.1475    0.3832 N   0  0  0  0  0  2  0  0  0  0  0  0
   -1.9506   -1.2915    0.8011 N   0  0  0  0  0  0  0  0  0  0  0  0
    0.8904   -3.5202    0.4354 C   0  0  0  0  0  0  0  0  0  0  0  0
   -0.1747   -2.7585    1.1859 C   0  0  1  0  0  3  0  0  0  0  0  0
   -0.1179   -2.5890    2.6699 C   0  0  0  0  0  0  0  0  0  0  0  0
    0.2991   -3.5192    3.1014 H   0  0  0  0  0  0  0  0  0  0  0  0
   -1.1375   -2.4107    3.0604 H   0  0  0  0  0  0  0  0  0  0  0  0
    0.7925   -1.4104    2.9965 C   0  0  0  0  0  0  0  0  0  0  0  0
    0.2628   -0.1102    3.1219 C   0  0  0  0  0  0  0  0  0  0  0  0
   -0.8184    0.0443    2.9887 H   0  0  0  0  0  0  0  0  0  0  0  0
    1.1049    0.9756    3.4054 C   0  0  0  0  0  0  0  0  0  0  0  0
    0.6774    1.9843    3.5120 H   0  0  0  0  0  0  0  0  0  0  0  0
    2.4871    0.7765    3.5575 C   0  0  0  0  0  0  0  0  0  0  0  0
    3.1447    1.6265    3.7978 H   0  0  0  0  0  0  0  0  0  0  0  0
    3.0250   -0.5121    3.4033 C   0  0  0  0  0  0  0  0  0  0  0  0
    4.1086   -0.6749    3.5085 H   0  0  0  0  0  0  0  0  0  0  0  0
    2.1842   -1.5988    3.1182 C   0  0  0  0  0  0  0  0  0  0  0  0
    2.6014   -2.6072    2.9746 H   0  0  0  0  0  0  0  0  0  0  0  0
   -2.3887   -0.6200   -0.2654 C   0  0  0  0  0  0  0  0  0  0  0  0
   -3.4325    0.4091   -0.0944 C   0  0  0  0  0  0  0  0  0  0  0  0
   -3.8688    1.1548   -1.2096 C   0  0  0  0  0  0  0  0  0  0  0  0
   -3.4193    0.9473   -2.1910 H   0  0  0  0  0  0  0  0  0  0  0  0
   -4.8544    2.1364   -1.0678 C   0  0  0  0  0  0  0  0  0  0  0  0
   -5.2007    2.7221   -1.9306 H   0  0  0  0  0  0  0  0  0  0  0  0
   -5.4095    2.3733    0.2020 C   0  0  0  0  0  0  0  0  0  0  0  0
   -4.9896    1.6376    1.3256 C   0  0  0  0  0  0  0  0  0  0  0  0
   -5.4409    1.8389    2.3071 H   0  0  0  0  0  0  0  0  0  0  0  0
   -4.0033    0.6598    1.1728 C   0  0  0  0  0  0  0  0  0  0  0  0
   -3.6610    0.0692    2.0342 H   0  0  0  0  0  0  0  0  0  0  0  0
  2  7  1  0  0  0  0
  4 23  1  0  0  0  0
  5  6  1  0  0  0  0
  7  3  2  0  0  0  0
  7  8  1  0  0  0  0
  8  5  1  6  0  0  0
  8  9  1  0  0  0  0
  9 12  1  0  0  0  0
  9 11  1  0  0  0  0
  9 10  1  0  0  0  0
 12 21  2  0  0  0  0
 12 13  1  0  0  0  0
 13 15  2  0  0  0  0
 14 13  1  0  0  0  0
 15 16  1  0  0  0  0
 15 17  1  0  0  0  0
 17 18  1  0  0  0  0
 19 20  1  0  0  0  0
 19 17  2  0  0  0  0
 21 19  1  0  0  0  0
 22 21  1  0  0  0  0
 23 24  1  0  0  0  0
 23  6  2  0  0  0  0
 24 32  1  0  0  0  0
 25 27  1  0  0  0  0
 25 24  2  0  0  0  0
 26 25  1  0  0  0  0
 27 29  2  0  0  0  0
 28 27  1  0  0  0  0
 29  1  1  0  0  0  0
 29 30  1  0  0  0  0
 30 31  1  0  0  0  0
 32 30  2  0  0  0  0
 32 33  1  0  0  0  0
M  CHG  2   2  -1   4  -1
M  END
