3,5,6
 OpenBabel05122313063D

 32 33  0  0  0  0  0  0  0  0999 V2000
   -4.0914    2.1306   -1.2144 Br  0  0  0  0  0  0  0  0  0  0  0  0
   -6.2779   -2.4537    1.3982 Br  0  0  0  0  0  0  0  0  0  0  0  0
    0.0477   -1.4490   -0.0370 N   0  0  0  0  0  2  0  0  0  0  0  0
    1.2126   -2.0661    0.2856 N   0  0  0  0  0  0  0  0  0  0  0  0
   -1.5143    0.5849   -0.7676 O   0  5  0  0  0  0  0  0  0  0  0  0
    2.0103   -0.4451   -1.1286 O   0  5  0  0  0  0  0  0  0  0  0  0
    7.4765   -3.4005    0.3731 O   0  0  0  0  0  0  0  0  0  0  0  0
   -2.3716   -1.3733    0.3114 C   0  0  0  0  0  0  0  0  0  0  0  0
   -2.5403   -0.0960   -0.3177 C   0  0  0  0  0  0  0  0  0  0  0  0
   -3.8578    0.4356   -0.3996 C   0  0  0  0  0  0  0  0  0  0  0  0
   -4.9618   -0.2593    0.1028 C   0  0  0  0  0  0  0  0  0  0  0  0
   -5.9671    0.1745    0.0181 H   0  0  0  0  0  0  0  0  0  0  0  0
   -4.7695   -1.5140    0.7160 C   0  0  0  0  0  0  0  0  0  0  0  0
   -3.4951   -2.0664    0.8291 C   0  0  0  0  0  0  0  0  0  0  0  0
   -3.3518   -3.0419    1.3151 H   0  0  0  0  0  0  0  0  0  0  0  0
   -1.0580   -1.9334    0.4833 C   0  0  0  0  0  3  0  0  0  0  0  0
   -0.9445   -2.8368    1.1097 H   0  0  0  0  0  0  0  0  0  0  0  0
    2.2166   -1.4747   -0.3454 C   0  0  0  0  0  0  0  0  0  0  0  0
    3.5906   -1.9649   -0.1694 C   0  0  0  0  0  0  0  0  0  0  0  0
    4.6558   -1.3338   -0.8416 C   0  0  0  0  0  0  0  0  0  0  0  0
    4.4316   -0.4785   -1.4950 H   0  0  0  0  0  0  0  0  0  0  0  0
    5.9730   -1.7824   -0.6885 C   0  0  0  0  0  0  0  0  0  0  0  0
    6.7826   -1.2724   -1.2270 H   0  0  0  0  0  0  0  0  0  0  0  0
    6.2409   -2.8842    0.1531 C   0  0  0  0  0  0  0  0  0  0  0  0
    5.1751   -3.5224    0.8324 C   0  0  0  0  0  0  0  0  0  0  0  0
    5.4116   -4.3782    1.4809 H   0  0  0  0  0  0  0  0  0  0  0  0
    3.8701   -3.0694    0.6723 C   0  0  0  0  0  0  0  0  0  0  0  0
    3.0348   -3.5578    1.1936 H   0  0  0  0  0  0  0  0  0  0  0  0
    8.5850   -2.8114   -0.2829 C   0  0  0  0  0  0  0  0  0  0  0  0
    8.4900   -2.8713   -1.3900 H   0  0  0  0  0  0  0  0  0  0  0  0
    9.4758   -3.3845    0.0335 H   0  0  0  0  0  0  0  0  0  0  0  0
    8.7185   -1.7452    0.0069 H   0  0  0  0  0  0  0  0  0  0  0  0
  1 10  1  0  0  0  0
  3  4  1  0  0  0  0
  3 16  1  0  0  0  0
  5  9  1  0  0  0  0
  6 18  1  0  0  0  0
  8 16  1  0  0  0  0
  8 14  1  0  0  0  0
  9  8  2  0  0  0  0
 10  9  1  0  0  0  0
 10 11  2  0  0  0  0
 11 13  1  0  0  0  0
 12 11  1  0  0  0  0
 13 14  2  0  0  0  0
 13  2  1  0  0  0  0
 14 15  1  0  0  0  0
 16 17  1  0  0  0  0
 18 19  1  0  0  0  0
 18  4  2  0  0  0  0
 19 27  1  0  0  0  0
 20 22  1  0  0  0  0
 20 19  2  0  0  0  0
 21 20  1  0  0  0  0
 22 24  2  0  0  0  0
 23 22  1  0  0  0  0
 24  7  1  0  0  0  0
 24 25  1  0  0  0  0
 25 26  1  0  0  0  0
 27 25  2  0  0  0  0
 27 28  1  0  0  0  0
 29 32  1  0  0  0  0
 29 31  1  0  0  0  0
 29  7  1  0  0  0  0
 30 29  1  0  0  0  0
M  CHG  2   5  -1   6  -1
M  END
