3,4,7
 OpenBabel05122313063D

 24 24  0  0  1  0  0  0  0  0999 V2000
   -6.1283   -0.7808    0.4838 Cl  0  0  0  0  0  0  0  0  0  0  0  0
    3.4051   -0.7717    0.1156 S   0  0  0  0  0  0  0  0  0  0  0  0
   -0.7541    1.3568   -0.6629 O   0  0  0  0  0  1  0  0  0  0  0  0
    2.6509   -0.0794   -1.0754 O   0  0  0  0  0  1  0  0  0  0  0  0
    3.5253    0.1631    1.2995 O   0  0  0  0  0  1  0  0  0  0  0  0
    4.6495   -1.3853   -0.3680 O   0  0  0  0  0  1  0  0  0  0  0  0
    0.2104   -1.2047   -0.5151 N   0  0  0  0  0  2  0  0  0  0  0  0
   -2.1378   -0.5758   -0.2057 C   0  0  0  0  0  0  0  0  0  0  0  0
   -1.9186    0.8343   -0.4035 C   0  0  2  0  0  3  0  0  0  0  0  0
   -3.0509    1.7015   -0.3118 C   0  0  0  0  0  0  0  0  0  0  0  0
   -2.8789    2.7764   -0.4634 H   0  0  0  0  0  0  0  0  0  0  0  0
   -4.3188    1.2066   -0.0436 C   0  0  0  0  0  0  0  0  0  0  0  0
   -5.1803    1.8867    0.0228 H   0  0  0  0  0  0  0  0  0  0  0  0
   -4.5205   -0.1853    0.1475 C   0  0  0  0  0  0  0  0  0  0  0  0
   -3.4487   -1.0619    0.0684 C   0  0  0  0  0  0  0  0  0  0  0  0
   -3.6085   -2.1398    0.2184 H   0  0  0  0  0  0  0  0  0  0  0  0
   -1.0506   -1.4969   -0.2677 C   0  0  0  0  0  0  0  0  0  0  0  0
   -1.2940   -2.5624   -0.0888 H   0  0  0  0  0  0  0  0  0  0  0  0
    1.1813   -2.3056   -0.4814 C   0  0  0  0  0  0  0  0  0  0  0  0
    1.6853   -2.3862   -1.4665 H   0  0  0  0  0  0  0  0  0  0  0  0
    0.6494   -3.2625   -0.2930 H   0  0  0  0  0  0  0  0  0  0  0  0
    2.2216   -2.0870    0.6118 C   0  0  0  0  0  0  0  0  0  0  0  0
    2.8457   -2.9847    0.7826 H   0  0  0  0  0  0  0  0  0  0  0  0
    1.7401   -1.7612    1.5537 H   0  0  0  0  0  0  0  0  0  0  0  0
  2 22  1  0  0  0  0
  2  5  1  0  0  0  0
  4  2  1  0  0  0  0
  6  2  1  0  0  0  0
  7 19  1  0  0  0  0
  7 17  1  0  0  0  0
  8 15  1  0  0  0  0
  9  3  1  6  0  0  0
  9 10  1  0  0  0  0
  9  8  1  0  0  0  0
 10 12  2  0  0  0  0
 11 10  1  0  0  0  0
 12 13  1  0  0  0  0
 12 14  1  0  0  0  0
 14  1  1  0  0  0  0
 15 14  2  0  0  0  0
 15 16  1  0  0  0  0
 17  8  2  0  0  0  0
 17 18  1  0  0  0  0
 19 21  1  0  0  0  0
 19 22  1  0  0  0  0
 20 19  1  0  0  0  0
 22 23  1  0  0  0  0
 22 24  1  0  0  0  0
M  END
