1,5,8
 OpenBabel05122313063D

 30 30  0  0  1  0  0  0  0  0999 V2000
   -1.4095   -0.7056    0.8186 N   0  0  0  0  0  2  0  0  0  0  0  0
   -3.1163   -1.0533   -1.8798 N   0  0  0  0  0  0  0  0  0  0  0  0
   -3.3395   -0.1605   -2.3227 H   0  0  0  0  0  0  0  0  0  0  0  0
   -2.1896   -1.4617   -2.0751 H   0  0  0  0  0  0  0  0  0  0  0  0
    0.7974   -1.7085   -0.0097 O   0  5  0  0  0  0  0  0  0  0  0  0
    0.7126   -3.5177    1.3388 O   0  0  0  0  0  0  0  0  0  0  0  0
   -4.9439   -0.7821   -0.5397 O   0  0  0  0  0  0  0  0  0  0  0  0
   -0.7997    1.6402   -0.4833 O   0  0  0  0  0  1  0  0  0  0  0  0
    0.2015   -2.5190    0.8603 C   0  0  0  0  0  0  0  0  0  0  0  0
   -1.2753   -2.1388    1.0776 C   0  0  2  0  0  0  0  0  0  0  0  0
   -1.5915   -2.3703    2.1176 H   0  0  0  0  0  0  0  0  0  0  0  0
   -2.0779   -3.0285    0.0895 C   0  0  0  0  0  0  0  0  0  0  0  0
   -1.9554   -4.0675    0.4574 H   0  0  0  0  0  0  0  0  0  0  0  0
   -1.5689   -2.9880   -0.8945 H   0  0  0  0  0  0  0  0  0  0  0  0
   -3.5593   -2.6999   -0.0890 C   0  0  0  0  0  0  0  0  0  0  0  0
   -4.0327   -3.5335   -0.6529 H   0  0  0  0  0  0  0  0  0  0  0  0
   -4.0984   -2.6498    0.8781 H   0  0  0  0  0  0  0  0  0  0  0  0
   -3.9298   -1.4118   -0.8424 C   0  0  0  0  0  0  0  0  0  0  0  0
   -2.4402   -0.0318    1.2694 C   0  0  0  0  0  0  0  0  0  0  0  0
   -3.1628   -0.5661    1.9156 H   0  0  0  0  0  0  0  0  0  0  0  0
   -2.7449    1.3269    0.9450 C   0  0  0  0  0  0  0  0  0  0  0  0
   -1.9148    2.0811    0.0370 C   0  0  1  0  0  3  0  0  0  0  0  0
   -2.3441    3.3996   -0.3071 C   0  0  0  0  0  0  0  0  0  0  0  0
   -1.7074    3.9702   -0.9988 H   0  0  0  0  0  0  0  0  0  0  0  0
   -3.5136    3.9375    0.2185 C   0  0  0  0  0  0  0  0  0  0  0  0
   -3.8106    4.9593   -0.0664 H   0  0  0  0  0  0  0  0  0  0  0  0
   -4.3281    3.1927    1.1067 C   0  0  0  0  0  0  0  0  0  0  0  0
   -5.2593    3.6225    1.5022 H   0  0  0  0  0  0  0  0  0  0  0  0
   -3.9419    1.9046    1.4517 C   0  0  0  0  0  0  0  0  0  0  0  0
   -4.5756    1.2911    2.1106 H   0  0  0  0  0  0  0  0  0  0  0  0
  1 10  1  0  0  0  0
  1 19  1  0  0  0  0
  2 18  1  0  0  0  0
  3  2  1  0  0  0  0
  4  2  1  0  0  0  0
  5  9  1  0  0  0  0
  9 10  1  0  0  0  0
  9  6  2  0  0  0  0
 10 11  1  1  0  0  0
 12 13  1  0  0  0  0
 12 10  1  0  0  0  0
 14 12  1  0  0  0  0
 15 12  1  0  0  0  0
 15 17  1  0  0  0  0
 16 15  1  0  0  0  0
 18  7  2  0  0  0  0
 18 15  1  0  0  0  0
 19 20  1  0  0  0  0
 21 19  2  0  0  0  0
 21 29  1  0  0  0  0
 22  8  1  1  0  0  0
 22 21  1  0  0  0  0
 23 22  1  0  0  0  0
 23 25  2  0  0  0  0
 24 23  1  0  0  0  0
 25 27  1  0  0  0  0
 26 25  1  0  0  0  0
 27 29  2  0  0  0  0
 27 28  1  0  0  0  0
 29 30  1  0  0  0  0
M  CHG  1   5  -1
M  END
