3,6,7
 OpenBabel05122313063D

 30 31  0  0  0  0  0  0  0  0999 V2000
    5.0702   -1.8624    0.0888 Cl  0  0  0  0  0  0  0  0  0  0  0  0
    5.9504    3.4962   -0.1668 Cl  0  0  0  0  0  0  0  0  0  0  0  0
    0.1976    0.6771   -0.0948 N   0  0  0  0  0  2  0  0  0  0  0  0
   -1.0867    1.1213   -0.0081 N   0  0  0  0  0  0  0  0  0  0  0  0
   -7.5925    1.0142    0.0511 N   0  0  0  0  0  0  0  0  0  0  0  0
    2.2666   -1.1082    0.0320 O   0  5  0  0  0  0  0  0  0  0  0  0
   -1.5170   -1.1368   -0.2641 O   0  5  0  0  0  0  0  0  0  0  0  0
   -7.9752    2.1736    0.2036 O   0  0  0  0  0  0  0  0  0  0  0  0
   -8.3234    0.0314   -0.0641 O   0  0  0  0  0  0  0  0  0  0  0  0
    2.5593    1.2922   -0.0865 C   0  0  0  0  0  0  0  0  0  0  0  0
    3.0575   -0.0479   -0.0377 C   0  0  0  0  0  0  0  0  0  0  0  0
    4.4657   -0.2407   -0.0124 C   0  0  0  0  0  0  0  0  0  0  0  0
    5.3513    0.8411   -0.0544 C   0  0  0  0  0  0  0  0  0  0  0  0
    6.4342    0.6613   -0.0382 H   0  0  0  0  0  0  0  0  0  0  0  0
    4.8424    2.1537   -0.1126 C   0  0  0  0  0  0  0  0  0  0  0  0
    3.4668    2.3820   -0.1209 C   0  0  0  0  0  0  0  0  0  0  0  0
    3.0809    3.4104   -0.1573 H   0  0  0  0  0  0  0  0  0  0  0  0
    1.1462    1.5818   -0.0557 C   0  0  0  0  0  3  0  0  0  0  0  0
    0.8265    2.6388    0.0093 H   0  0  0  0  0  0  0  0  0  0  0  0
   -1.9254    0.1088   -0.1225 C   0  0  0  0  0  0  0  0  0  0  0  0
   -3.3803    0.3499   -0.0813 C   0  0  0  0  0  0  0  0  0  0  0  0
   -4.2711   -0.7386   -0.2114 C   0  0  0  0  0  0  0  0  0  0  0  0
   -3.8603   -1.7489   -0.3457 H   0  0  0  0  0  0  0  0  0  0  0  0
   -5.6520   -0.5250   -0.1700 C   0  0  0  0  0  0  0  0  0  0  0  0
   -6.3755   -1.3449   -0.2680 H   0  0  0  0  0  0  0  0  0  0  0  0
   -6.1250    0.7822    0.0032 C   0  0  0  0  0  0  0  0  0  0  0  0
   -5.2620    1.8805    0.1334 C   0  0  0  0  0  0  0  0  0  0  0  0
   -5.6922    2.8819    0.2653 H   0  0  0  0  0  0  0  0  0  0  0  0
   -3.8844    1.6600    0.0896 C   0  0  0  0  0  0  0  0  0  0  0  0
   -3.1733    2.4918    0.1866 H   0  0  0  0  0  0  0  0  0  0  0  0
  2 15  1  0  0  0  0
  3 18  1  0  0  0  0
  3  4  1  0  0  0  0
  5  8  2  0  0  0  0
  7 20  1  0  0  0  0
  9  5  2  0  0  0  0
 10 18  1  0  0  0  0
 10 11  1  0  0  0  0
 11 12  2  0  0  0  0
 11  6  1  0  0  0  0
 12  1  1  0  0  0  0
 13 14  1  0  0  0  0
 13 12  1  0  0  0  0
 15 13  2  0  0  0  0
 16 15  1  0  0  0  0
 16 10  2  0  0  0  0
 17 16  1  0  0  0  0
 18 19  1  0  0  0  0
 20 21  1  0  0  0  0
 20  4  2  0  0  0  0
 21 29  1  0  0  0  0
 22 24  1  0  0  0  0
 22 21  2  0  0  0  0
 23 22  1  0  0  0  0
 24 26  2  0  0  0  0
 25 24  1  0  0  0  0
 26  5  1  0  0  0  0
 26 27  1  0  0  0  0
 27 28  1  0  0  0  0
 29 27  2  0  0  0  0
 29 30  1  0  0  0  0
M  CHG  2   6  -1   7  -1
M  END
