1,2,4
 OpenBabel05122313063D

 38 39  0  0  1  0  0  0  0  0999 V2000
   -0.5659    0.5189    0.0534 N   0  0  0  0  0  2  0  0  0  0  0  0
   -2.3973   -0.9261    0.9637 O   0  5  0  0  0  0  0  0  0  0  0  0
   -3.5047    0.7369    2.0048 O   0  0  0  0  0  0  0  0  0  0  0  0
    0.6525   -1.5944   -0.9828 O   0  5  0  0  0  0  0  0  0  0  0  0
   -2.6429    0.3518    1.2345 C   0  0  0  0  0  0  0  0  0  0  0  0
   -1.7183    1.3105    0.4576 C   0  0  2  0  0  0  0  0  0  0  0  0
   -1.4109    2.1259    1.1480 H   0  0  0  0  0  0  0  0  0  0  0  0
   -2.4235    1.9239   -0.7737 C   0  0  0  0  0  0  0  0  0  0  0  0
   -1.6863    2.6030   -1.2593 H   0  0  0  0  0  0  0  0  0  0  0  0
   -2.6235    1.1080   -1.4988 H   0  0  0  0  0  0  0  0  0  0  0  0
   -3.7210    2.7014   -0.4905 C   0  0  0  0  0  0  0  0  0  0  0  0
   -4.4682    1.9793   -0.0955 H   0  0  0  0  0  0  0  0  0  0  0  0
   -4.2626    3.2767   -1.8053 C   0  0  0  0  0  0  0  0  0  0  0  0
   -5.2360    3.7839   -1.6483 H   0  0  0  0  0  0  0  0  0  0  0  0
   -4.4108    2.4842   -2.5671 H   0  0  0  0  0  0  0  0  0  0  0  0
   -3.5603    4.0245   -2.2324 H   0  0  0  0  0  0  0  0  0  0  0  0
   -3.5376    3.7944    0.5696 C   0  0  0  0  0  0  0  0  0  0  0  0
   -3.3258    3.3535    1.5633 H   0  0  0  0  0  0  0  0  0  0  0  0
   -4.4589    4.4034    0.6697 H   0  0  0  0  0  0  0  0  0  0  0  0
   -2.7102    4.4860    0.2979 H   0  0  0  0  0  0  0  0  0  0  0  0
    0.6344    1.0149    0.1458 C   0  0  0  0  0  3  0  0  0  0  0  0
    0.7175    2.0569    0.5126 H   0  0  0  0  0  0  0  0  0  0  0  0
    1.8530    0.3380   -0.2043 C   0  0  0  0  0  0  0  0  0  0  0  0
    3.1445    0.9715   -0.0092 C   0  0  0  0  0  0  0  0  0  0  0  0
    3.3128    2.2460    0.6039 C   0  0  0  0  0  0  0  0  0  0  0  0
    2.4398    2.8037    0.9702 H   0  0  0  0  0  0  0  0  0  0  0  0
    4.5723    2.8124    0.7680 C   0  0  0  0  0  0  0  0  0  0  0  0
    4.6625    3.7989    1.2476 H   0  0  0  0  0  0  0  0  0  0  0  0
    5.7352    2.1341    0.3303 C   0  0  0  0  0  0  0  0  0  0  0  0
    6.7264    2.5915    0.4655 H   0  0  0  0  0  0  0  0  0  0  0  0
    5.6097    0.8870   -0.2657 C   0  0  0  0  0  0  0  0  0  0  0  0
    6.5007    0.3392   -0.6103 H   0  0  0  0  0  0  0  0  0  0  0  0
    4.3339    0.2849   -0.4462 C   0  0  0  0  0  0  0  0  0  0  0  0
    4.2093   -1.0022   -1.0575 C   0  0  0  0  0  0  0  0  0  0  0  0
    5.1259   -1.5148   -1.3898 H   0  0  0  0  0  0  0  0  0  0  0  0
    2.9835   -1.6053   -1.2321 C   0  0  0  0  0  0  0  0  0  0  0  0
    2.8808   -2.5948   -1.6993 H   0  0  0  0  0  0  0  0  0  0  0  0
    1.7829   -0.9563   -0.7952 C   0  0  0  0  0  0  0  0  0  0  0  0
  1 21  1  0  0  0  0
  1  6  1  0  0  0  0
  2  5  1  0  0  0  0
  4 38  1  0  0  0  0
  5  3  2  0  0  0  0
  6  7  1  1  0  0  0
  6  5  1  0  0  0  0
  8 11  1  0  0  0  0
  8  6  1  0  0  0  0
  9  8  1  0  0  0  0
 10  8  1  0  0  0  0
 11 12  1  0  0  0  0
 11 17  1  0  0  0  0
 13 14  1  0  0  0  0
 13 11  1  0  0  0  0
 15 13  1  0  0  0  0
 16 13  1  0  0  0  0
 17 19  1  0  0  0  0
 17 18  1  0  0  0  0
 20 17  1  0  0  0  0
 21 22  1  0  0  0  0
 23 24  1  0  0  0  0
 23 21  1  0  0  0  0
 24 25  1  0  0  0  0
 25 27  2  0  0  0  0
 25 26  1  0  0  0  0
 27 28  1  0  0  0  0
 29 30  1  0  0  0  0
 29 27  1  0  0  0  0
 31 29  2  0  0  0  0
 32 31  1  0  0  0  0
 33 31  1  0  0  0  0
 33 24  2  0  0  0  0
 34 33  1  0  0  0  0
 35 34  1  0  0  0  0
 36 34  2  0  0  0  0
 36 38  1  0  0  0  0
 37 36  1  0  0  0  0
 38 23  2  0  0  0  0
M  CHG  2   2  -1   4  -1
M  END
