1,4,5
 OpenBabel05122313063D

 34 35  0  0  0  0  0  0  0  0999 V2000
   -1.5777    0.6195    0.0001 N   0  0  0  0  0  2  0  0  0  0  0  0
   -0.2063    0.6713    0.0324 N   0  0  0  0  0  0  0  0  0  0  0  0
    8.0912    0.4942    0.0030 N   0  0  0  0  0  0  0  0  0  0  0  0
   -4.0639   -0.4714    0.3415 O   0  5  0  0  0  0  0  0  0  0  0  0
   -0.4790   -1.6272   -0.1034 O   0  5  0  0  0  0  0  0  0  0  0  0
    2.4773    0.3836    0.0076 O   0  0  0  0  0  0  0  0  0  0  0  0
    8.6171    1.6063    0.0816 O   0  0  0  0  0  0  0  0  0  0  0  0
    8.7023   -0.5736   -0.0739 O   0  0  0  0  0  0  0  0  0  0  0  0
   -3.6523    1.8926   -0.0021 C   0  0  0  0  0  0  0  0  0  0  0  0
   -4.5280    0.7697    0.1448 C   0  0  0  0  0  0  0  0  0  0  0  0
   -5.9240    0.9714    0.1339 C   0  0  0  0  0  0  0  0  0  0  0  0
   -6.5728    0.0913    0.2468 H   0  0  0  0  0  0  0  0  0  0  0  0
   -6.4515    2.2580   -0.0147 C   0  0  0  0  0  0  0  0  0  0  0  0
   -7.5436    2.3948   -0.0237 H   0  0  0  0  0  0  0  0  0  0  0  0
   -5.6016    3.3744   -0.1492 C   0  0  0  0  0  0  0  0  0  0  0  0
   -6.0230    4.3832   -0.2637 H   0  0  0  0  0  0  0  0  0  0  0  0
   -4.2204    3.1866   -0.1370 C   0  0  0  0  0  0  0  0  0  0  0  0
   -3.5417    4.0473   -0.2423 H   0  0  0  0  0  0  0  0  0  0  0  0
   -2.2164    1.7614    0.0082 C   0  0  0  0  0  3  0  0  0  0  0  0
   -1.5989    2.6797    0.0118 H   0  0  0  0  0  0  0  0  0  0  0  0
    0.2693   -0.5427   -0.0461 C   0  0  0  0  0  0  0  0  0  0  0  0
    1.7483   -0.8205   -0.0697 C   0  0  0  0  0  0  0  0  0  0  0  0
    1.9846   -1.5029    0.7807 H   0  0  0  0  0  0  0  0  0  0  0  0
    1.9745   -1.3840   -1.0058 H   0  0  0  0  0  0  0  0  0  0  0  0
    3.8306    0.3281   -0.0004 C   0  0  0  0  0  0  0  0  0  0  0  0
    4.4924    1.5765    0.0871 C   0  0  0  0  0  0  0  0  0  0  0  0
    3.8783    2.4856    0.1533 H   0  0  0  0  0  0  0  0  0  0  0  0
    5.8830    1.6337    0.0881 C   0  0  0  0  0  0  0  0  0  0  0  0
    6.4263    2.5855    0.1549 H   0  0  0  0  0  0  0  0  0  0  0  0
    6.6172    0.4382    0.0012 C   0  0  0  0  0  0  0  0  0  0  0  0
    5.9802   -0.8049   -0.0867 C   0  0  0  0  0  0  0  0  0  0  0  0
    6.5969   -1.7111   -0.1535 H   0  0  0  0  0  0  0  0  0  0  0  0
    4.5819   -0.8663   -0.0879 C   0  0  0  0  0  0  0  0  0  0  0  0
    4.0896   -1.8449   -0.1580 H   0  0  0  0  0  0  0  0  0  0  0  0
  1 19  1  0  0  0  0
  1  2  1  0  0  0  0
  3  7  2  0  0  0  0
  5 21  1  0  0  0  0
  8  3  2  0  0  0  0
  9 19  1  0  0  0  0
  9 10  1  0  0  0  0
 10  4  1  0  0  0  0
 11 10  2  0  0  0  0
 11 12  1  0  0  0  0
 13 11  1  0  0  0  0
 14 13  1  0  0  0  0
 15 17  1  0  0  0  0
 15 13  2  0  0  0  0
 16 15  1  0  0  0  0
 17  9  2  0  0  0  0
 18 17  1  0  0  0  0
 19 20  1  0  0  0  0
 21  2  2  0  0  0  0
 22 21  1  0  0  0  0
 22  6  1  0  0  0  0
 22 23  1  0  0  0  0
 24 22  1  0  0  0  0
 25  6  1  0  0  0  0
 25 26  1  0  0  0  0
 26 28  2  0  0  0  0
 26 27  1  0  0  0  0
 28 29  1  0  0  0  0
 30  3  1  0  0  0  0
 30 28  1  0  0  0  0
 31 30  2  0  0  0  0
 32 31  1  0  0  0  0
 33 31  1  0  0  0  0
 33 25  2  0  0  0  0
 34 33  1  0  0  0  0
M  CHG  2   4  -1   5  -1
M  END
