1,2,3
 OpenBabel05122313063D

 29 30  0  0  1  0  0  0  0  0999 V2000
   -2.4641    1.1338   -0.0862 O   0  5  0  0  0  0  0  0  0  0  0  0
    1.4520    1.1553   -0.0648 O   0  0  0  0  0  1  0  0  0  0  0  0
   -0.4079   -0.6011   -0.0132 N   0  0  0  0  0  2  0  0  0  0  0  0
    0.8925   -1.0176   -0.0028 N   0  0  0  0  0  0  0  0  0  0  0  0
    1.1204   -2.0112    0.1135 H   0  0  0  0  0  0  0  0  0  0  0  0
   -3.2436    0.1033   -0.0189 C   0  0  0  0  0  0  0  0  0  0  0  0
   -4.6617    0.2846   -0.0158 C   0  0  0  0  0  0  0  0  0  0  0  0
   -5.0341    1.3174   -0.0688 H   0  0  0  0  0  0  0  0  0  0  0  0
   -5.5227   -0.8029    0.0524 C   0  0  0  0  0  0  0  0  0  0  0  0
   -6.6101   -0.6284    0.0539 H   0  0  0  0  0  0  0  0  0  0  0  0
   -5.0306   -2.1335    0.1206 C   0  0  0  0  0  0  0  0  0  0  0  0
   -5.7284   -2.9811    0.1743 H   0  0  0  0  0  0  0  0  0  0  0  0
   -3.6608   -2.3465    0.1183 C   0  0  0  0  0  0  0  0  0  0  0  0
   -3.2563   -3.3706    0.1698 H   0  0  0  0  0  0  0  0  0  0  0  0
   -2.7449   -1.2553    0.0500 C   0  0  0  0  0  0  0  0  0  0  0  0
   -1.3469   -1.5216    0.0460 C   0  0  0  0  0  3  0  0  0  0  0  0
   -1.0371   -2.5877    0.0963 H   0  0  0  0  0  0  0  0  0  0  0  0
    1.8375   -0.0382   -0.0334 C   0  0  2  0  0  3  0  0  0  0  0  0
    3.2698   -0.4055   -0.0126 C   0  0  0  0  0  0  0  0  0  0  0  0
    3.7348   -1.7088   -0.2955 C   0  0  0  0  0  0  0  0  0  0  0  0
    3.0369   -2.5099   -0.5860 H   0  0  0  0  0  0  0  0  0  0  0  0
    5.1058   -1.9895   -0.2524 C   0  0  0  0  0  0  0  0  0  0  0  0
    5.4634   -3.0044   -0.4807 H   0  0  0  0  0  0  0  0  0  0  0  0
    6.0218   -0.9734    0.0677 C   0  0  0  0  0  0  0  0  0  0  0  0
    7.0988   -1.1968    0.1001 H   0  0  0  0  0  0  0  0  0  0  0  0
    5.5648    0.3277    0.3361 C   0  0  0  0  0  0  0  0  0  0  0  0
    6.2823    1.1251    0.5799 H   0  0  0  0  0  0  0  0  0  0  0  0
    4.1960    0.6149    0.2929 C   0  0  0  0  0  0  0  0  0  0  0  0
    3.8129    1.6256    0.4946 H   0  0  0  0  0  0  0  0  0  0  0  0
  1  6  1  0  0  0  0
  3  4  1  0  0  0  0
  3 16  1  0  0  0  0
  4  5  1  0  0  0  0
  6  7  2  0  0  0  0
  6 15  1  0  0  0  0
  7  9  1  0  0  0  0
  8  7  1  0  0  0  0
  9 10  1  0  0  0  0
  9 11  2  0  0  0  0
 11 12  1  0  0  0  0
 13 11  1  0  0  0  0
 13 14  1  0  0  0  0
 15 13  2  0  0  0  0
 16 15  1  0  0  0  0
 16 17  1  0  0  0  0
 18  2  1  1  0  0  0
 18 19  1  0  0  0  0
 18  4  1  0  0  0  0
 19 28  1  0  0  0  0
 20 22  1  0  0  0  0
 20 19  2  0  0  0  0
 21 20  1  0  0  0  0
 22 24  2  0  0  0  0
 23 22  1  0  0  0  0
 24 25  1  0  0  0  0
 24 26  1  0  0  0  0
 26 27  1  0  0  0  0
 28 26  2  0  0  0  0
 28 29  1  0  0  0  0
M  CHG  1   1  -1
M  END
