2,3,4
 OpenBabel05122313063D

 30 30  0  0  0  0  0  0  0  0999 V2000
   -2.8930   -0.9045    0.0707 S   0  0  0  0  0  0  0  0  0  0  0  0
    1.7942   -0.6077    0.6950 O   0  5  0  0  0  0  0  0  0  0  0  0
   -1.6337   -1.1594   -0.9725 O   0  0  0  0  0  1  0  0  0  0  0  0
   -0.3268    0.9361    0.0557 N   0  0  0  0  0  2  0  0  0  0  0  0
   -1.5502    1.5133    0.2412 N   0  0  0  0  0  0  0  0  0  0  0  0
   -3.7355    1.4761    0.9199 N   0  0  0  0  0  0  0  0  0  0  0  0
    2.5960    0.3822    0.3079 C   0  0  0  0  0  0  0  0  0  0  0  0
    4.0027    0.2122    0.4190 C   0  0  0  0  0  0  0  0  0  0  0  0
    4.8249    1.2738    0.0156 C   0  0  0  0  0  0  0  0  0  0  0  0
    5.9171    1.1451    0.0804 H   0  0  0  0  0  0  0  0  0  0  0  0
    4.2963    2.4905   -0.4675 C   0  0  0  0  0  0  0  0  0  0  0  0
    4.9742    3.3012   -0.7712 H   0  0  0  0  0  0  0  0  0  0  0  0
    2.9179    2.6606   -0.5491 C   0  0  0  0  0  0  0  0  0  0  0  0
    2.4873    3.6085   -0.9070 H   0  0  0  0  0  0  0  0  0  0  0  0
    2.0417    1.6074   -0.1707 C   0  0  0  0  0  0  0  0  0  0  0  0
    0.6248    1.8350   -0.1486 C   0  0  0  0  0  3  0  0  0  0  0  0
    0.2691    2.8763   -0.2594 H   0  0  0  0  0  0  0  0  0  0  0  0
   -2.6506    0.8212    0.4062 C   0  0  0  0  0  0  0  0  0  0  0  0
   -5.1275    1.0924    0.7060 C   0  0  0  0  0  0  0  0  0  0  0  0
   -5.7255    1.6077    1.4851 H   0  0  0  0  0  0  0  0  0  0  0  0
   -5.2373    0.0086    0.9221 H   0  0  0  0  0  0  0  0  0  0  0  0
   -5.6583    1.4152   -0.6916 C   0  0  0  0  0  0  0  0  0  0  0  0
   -6.7230    1.1200   -0.7813 H   0  0  0  0  0  0  0  0  0  0  0  0
   -5.0826    0.8659   -1.4631 H   0  0  0  0  0  0  0  0  0  0  0  0
   -5.5826    2.5001   -0.9073 H   0  0  0  0  0  0  0  0  0  0  0  0
    4.5382   -1.0918    0.9388 C   0  0  0  0  0  0  0  0  0  0  0  0
    4.1461   -1.3059    1.9545 H   0  0  0  0  0  0  0  0  0  0  0  0
    5.6437   -1.0868    0.9785 H   0  0  0  0  0  0  0  0  0  0  0  0
    4.2090   -1.9371    0.2995 H   0  0  0  0  0  0  0  0  0  0  0  0
   -3.5343    2.4579    1.1317 H   0  0  0  0  0  0  0  0  0  0  0  0
  1 18  1  0  0  0  0
  3  1  1  0  0  0  0
  4  5  1  0  0  0  0
  5 18  2  0  0  0  0
  6 30  1  0  0  0  0
  7  8  1  0  0  0  0
  7  2  1  0  0  0  0
  8 26  1  0  0  0  0
  9 10  1  0  0  0  0
  9  8  2  0  0  0  0
 11  9  1  0  0  0  0
 12 11  1  0  0  0  0
 13 11  2  0  0  0  0
 13 15  1  0  0  0  0
 14 13  1  0  0  0  0
 15 16  1  0  0  0  0
 15  7  2  0  0  0  0
 16  4  1  0  0  0  0
 17 16  1  0  0  0  0
 18  6  1  0  0  0  0
 19  6  1  0  0  0  0
 19 21  1  0  0  0  0
 19 20  1  0  0  0  0
 22 19  1  0  0  0  0
 23 22  1  0  0  0  0
 24 22  1  0  0  0  0
 25 22  1  0  0  0  0
 26 28  1  0  0  0  0
 26 27  1  0  0  0  0
 29 26  1  0  0  0  0
M  CHG  1   2  -1
M  END
