1,6,8
 OpenBabel05122313063D

 26 25  0  0  0  0  0  0  0  0999 V2000
    1.1302    0.6285   -0.0003 N   0  0  0  0  0  0  0  0  0  0  0  0
    5.9251   -0.8821    0.0003 N   0  3  0  0  0  0  0  0  0  0  0  0
    6.1463   -0.3016   -0.8312 H   0  0  0  0  0  0  0  0  0  0  0  0
    6.5694   -1.6956    0.0006 H   0  0  0  0  0  0  0  0  0  0  0  0
    6.1459   -0.3013    0.8316 H   0  0  0  0  0  0  0  0  0  0  0  0
   -1.2047    1.3184   -1.3920 O   0  5  0  0  0  0  0  0  0  0  0  0
   -0.1300    2.9912   -2.4788 O   0  0  0  0  0  0  0  0  0  0  0  0
   -1.2042    1.3174    1.3933 O   0  5  0  0  0  0  0  0  0  0  0  0
   -0.1294    2.9904    2.4798 O   0  0  0  0  0  0  0  0  0  0  0  0
    1.2000    1.4480   -1.2349 C   0  0  0  0  0  0  0  0  0  0  0  0
    1.5608    0.7994   -2.0614 H   0  0  0  0  0  0  0  0  0  0  0  0
    1.9060    2.2980   -1.1201 H   0  0  0  0  0  0  0  0  0  0  0  0
   -0.1670    2.0137   -1.7416 C   0  0  0  0  0  0  0  0  0  0  0  0
    1.2004    1.4489    1.2337 C   0  0  0  0  0  0  0  0  0  0  0  0
    1.9051    2.2998    1.1174 H   0  0  0  0  0  0  0  0  0  0  0  0
    1.5635    0.8016    2.0602 H   0  0  0  0  0  0  0  0  0  0  0  0
   -0.1665    2.0130    1.7424 C   0  0  0  0  0  0  0  0  0  0  0  0
    2.0795   -0.4892   -0.0001 C   0  0  0  0  0  0  0  0  0  0  0  0
    1.8725   -1.1197   -0.8897 H   0  0  0  0  0  0  0  0  0  0  0  0
    1.8728   -1.1191    0.8900 H   0  0  0  0  0  0  0  0  0  0  0  0
    3.5647   -0.0593   -0.0005 C   0  0  0  0  0  0  0  0  0  0  0  0
    3.7646    0.5649   -0.8994 H   0  0  0  0  0  0  0  0  0  0  0  0
    3.7649    0.5660    0.8975 H   0  0  0  0  0  0  0  0  0  0  0  0
    4.4548   -1.2823    0.0000 C   0  0  0  0  0  0  0  0  0  0  0  0
    4.3062   -1.9147    0.8981 H   0  0  0  0  0  0  0  0  0  0  0  0
    4.3067   -1.9151   -0.8978 H   0  0  0  0  0  0  0  0  0  0  0  0
  1 18  1  0  0  0  0
  1 14  1  0  0  0  0
  2  4  1  0  0  0  0
  2  5  1  0  0  0  0
  3  2  1  0  0  0  0
  7 13  2  0  0  0  0
  8 17  1  0  0  0  0
 10 12  1  0  0  0  0
 10  1  1  0  0  0  0
 11 10  1  0  0  0  0
 13  6  1  0  0  0  0
 13 10  1  0  0  0  0
 14 17  1  0  0  0  0
 14 16  1  0  0  0  0
 15 14  1  0  0  0  0
 17  9  2  0  0  0  0
 18 20  1  0  0  0  0
 19 18  1  0  0  0  0
 21 18  1  0  0  0  0
 21 24  1  0  0  0  0
 21 23  1  0  0  0  0
 22 21  1  0  0  0  0
 24  2  1  0  0  0  0
 24 25  1  0  0  0  0
 26 24  1  0  0  0  0
M  CHG  3   2   1   6  -1   8  -1
M  END
