1,2,3
 OpenBabel05122313063D

 26 27  0  0  0  0  0  0  0  0999 V2000
   -2.2841   -0.8951    0.3284 O   0  5  0  0  0  0  0  0  0  0  0  0
    1.4769   -0.8653   -0.0876 O   0  5  0  0  0  0  0  0  0  0  0  0
   -0.2562    0.9219    0.0254 N   0  0  0  0  0  2  0  0  0  0  0  0
    1.0210    1.3994    0.0765 N   0  0  0  0  0  0  0  0  0  0  0  0
    3.7770    1.9046    0.0839 N   0  0  0  0  0  0  0  0  0  0  0  0
    5.5519   -0.2867   -0.1176 N   0  0  0  0  0  0  0  0  0  0  0  0
   -2.6258    1.4840    0.0118 C   0  0  0  0  0  0  0  0  0  0  0  0
   -3.1090    0.1412    0.1380 C   0  0  0  0  0  0  0  0  0  0  0  0
   -4.4987   -0.1012    0.1129 C   0  0  0  0  0  0  0  0  0  0  0  0
   -4.8414   -1.1410    0.2098 H   0  0  0  0  0  0  0  0  0  0  0  0
   -5.3998    0.9585   -0.0286 C   0  0  0  0  0  0  0  0  0  0  0  0
   -6.4801    0.7483   -0.0485 H   0  0  0  0  0  0  0  0  0  0  0  0
   -4.9394    2.2862   -0.1428 C   0  0  0  0  0  0  0  0  0  0  0  0
   -5.6535    3.1147   -0.2522 H   0  0  0  0  0  0  0  0  0  0  0  0
   -3.5690    2.5381   -0.1170 C   0  0  0  0  0  0  0  0  0  0  0  0
   -3.1915    3.5687   -0.2062 H   0  0  0  0  0  0  0  0  0  0  0  0
   -1.2228    1.8080    0.0377 C   0  0  0  0  0  3  0  0  0  0  0  0
   -0.9219    2.8726    0.0575 H   0  0  0  0  0  0  0  0  0  0  0  0
    1.8674    0.3983   -0.0096 C   0  0  0  0  0  0  0  0  0  0  0  0
    3.3306    0.6371   -0.0120 C   0  0  0  0  0  0  0  0  0  0  0  0
    5.1026    2.0671    0.0793 C   0  0  0  0  0  0  0  0  0  0  0  0
    5.4854    3.1007    0.1574 H   0  0  0  0  0  0  0  0  0  0  0  0
    5.9903    0.9769   -0.0210 C   0  0  0  0  0  0  0  0  0  0  0  0
    7.0834    1.1367   -0.0232 H   0  0  0  0  0  0  0  0  0  0  0  0
    4.2225   -0.4570   -0.1131 C   0  0  0  0  0  0  0  0  0  0  0  0
    3.8306   -1.4844   -0.1919 H   0  0  0  0  0  0  0  0  0  0  0  0
  2 19  1  0  0  0  0
  3 17  1  0  0  0  0
  3  4  1  0  0  0  0
  6 25  2  0  0  0  0
  6 23  1  0  0  0  0
  7 17  1  0  0  0  0
  7  8  1  0  0  0  0
  8  1  1  0  0  0  0
  9  8  2  0  0  0  0
  9 10  1  0  0  0  0
 11  9  1  0  0  0  0
 12 11  1  0  0  0  0
 13 15  1  0  0  0  0
 13 11  2  0  0  0  0
 14 13  1  0  0  0  0
 15  7  2  0  0  0  0
 16 15  1  0  0  0  0
 17 18  1  0  0  0  0
 19  4  2  0  0  0  0
 20 19  1  0  0  0  0
 20  5  2  0  0  0  0
 21  5  1  0  0  0  0
 21 22  1  0  0  0  0
 23 21  2  0  0  0  0
 24 23  1  0  0  0  0
 25 20  1  0  0  0  0
 26 25  1  0  0  0  0
M  CHG  2   1  -1   2  -1
M  END
