1,4,6
 OpenBabel05122313063D

 34 35  0  0  0  0  0  0  0  0999 V2000
   -0.6360   -0.9951    0.0749 N   0  0  0  0  0  2  0  0  0  0  0  0
    0.6851   -1.3107    0.0318 N   0  0  0  0  0  0  0  0  0  0  0  0
    7.1272   -0.3970   -0.1489 N   0  0  0  0  0  0  0  0  0  0  0  0
   -2.7333    0.5315   -0.3736 O   0  5  0  0  0  0  0  0  0  0  0  0
   -5.3511    0.8567   -0.5066 O   0  0  0  0  0  0  0  0  0  0  0  0
    0.8084    0.9803   -0.1130 O   0  5  0  0  0  0  0  0  0  0  0  0
    7.6570   -1.5074   -0.1058 O   0  0  0  0  0  0  0  0  0  0  0  0
    7.7285    0.6752   -0.2134 O   0  0  0  0  0  0  0  0  0  0  0  0
   -2.9217   -1.8222    0.0783 C   0  0  0  0  0  0  0  0  0  0  0  0
   -3.4871   -0.5373   -0.1747 C   0  0  0  0  0  0  0  0  0  0  0  0
   -4.9104   -0.4000   -0.2592 C   0  0  0  0  0  0  0  0  0  0  0  0
   -5.7222   -1.5307   -0.0883 C   0  0  0  0  0  0  0  0  0  0  0  0
   -6.8147   -1.4347   -0.1458 H   0  0  0  0  0  0  0  0  0  0  0  0
   -5.1521   -2.8008    0.1593 C   0  0  0  0  0  0  0  0  0  0  0  0
   -5.8135   -3.6695    0.2899 H   0  0  0  0  0  0  0  0  0  0  0  0
   -3.7740   -2.9518    0.2361 C   0  0  0  0  0  0  0  0  0  0  0  0
   -3.3226   -3.9371    0.4253 H   0  0  0  0  0  0  0  0  0  0  0  0
   -6.7467    1.0656   -0.6080 C   0  0  0  0  0  0  0  0  0  0  0  0
   -7.1937    0.4773   -1.4409 H   0  0  0  0  0  0  0  0  0  0  0  0
   -6.8868    2.1429   -0.8120 H   0  0  0  0  0  0  0  0  0  0  0  0
   -7.2741    0.8040    0.3371 H   0  0  0  0  0  0  0  0  0  0  0  0
   -1.4968   -1.9882    0.1119 C   0  0  0  0  0  3  0  0  0  0  0  0
   -1.0765   -3.0102    0.1591 H   0  0  0  0  0  0  0  0  0  0  0  0
    1.3882   -0.1937   -0.0416 C   0  0  0  0  0  0  0  0  0  0  0  0
    2.8636   -0.2558   -0.0689 C   0  0  0  0  0  0  0  0  0  0  0  0
    3.6100    0.9407   -0.1433 C   0  0  0  0  0  0  0  0  0  0  0  0
    3.0712    1.8976   -0.1795 H   0  0  0  0  0  0  0  0  0  0  0  0
    5.0069    0.8996   -0.1690 C   0  0  0  0  0  0  0  0  0  0  0  0
    5.6206    1.8082   -0.2259 H   0  0  0  0  0  0  0  0  0  0  0  0
    5.6441   -0.3475   -0.1210 C   0  0  0  0  0  0  0  0  0  0  0  0
    4.9264   -1.5511   -0.0474 C   0  0  0  0  0  0  0  0  0  0  0  0
    5.4802   -2.4984   -0.0117 H   0  0  0  0  0  0  0  0  0  0  0  0
    3.5317   -1.5011   -0.0213 C   0  0  0  0  0  0  0  0  0  0  0  0
    2.9310   -2.4194    0.0363 H   0  0  0  0  0  0  0  0  0  0  0  0
  1 22  1  0  0  0  0
  2  1  1  0  0  0  0
  3 30  1  0  0  0  0
  3  7  2  0  0  0  0
  4 10  1  0  0  0  0
  5 11  1  0  0  0  0
  6 24  1  0  0  0  0
  8  3  2  0  0  0  0
  9 22  1  0  0  0  0
  9 16  1  0  0  0  0
 10  9  2  0  0  0  0
 11 10  1  0  0  0  0
 11 12  2  0  0  0  0
 12 14  1  0  0  0  0
 13 12  1  0  0  0  0
 14 16  2  0  0  0  0
 14 15  1  0  0  0  0
 16 17  1  0  0  0  0
 18  5  1  0  0  0  0
 18 21  1  0  0  0  0
 19 18  1  0  0  0  0
 20 18  1  0  0  0  0
 22 23  1  0  0  0  0
 24  2  2  0  0  0  0
 25 24  1  0  0  0  0
 25 33  1  0  0  0  0
 26 25  2  0  0  0  0
 27 26  1  0  0  0  0
 28 26  1  0  0  0  0
 28 30  2  0  0  0  0
 29 28  1  0  0  0  0
 30 31  1  0  0  0  0
 31 33  2  0  0  0  0
 31 32  1  0  0  0  0
 33 34  1  0  0  0  0
M  CHG  2   4  -1   6  -1
M  END
