16,17,20
 OpenBabel05122313063D

 21 21  0  0  0  0  0  0  0  0999 V2000
    2.1755    1.1386    0.2176 C   0  0  0  0  0  0  0  0  0  0  0  0
    3.0498    2.2802    0.1881 C   0  0  0  0  0  0  0  0  0  0  0  0
    2.5697    3.2616    0.0603 H   0  0  0  0  0  0  0  0  0  0  0  0
    4.4263    2.1723    0.3072 C   0  0  0  0  0  0  0  0  0  0  0  0
    5.0650    3.0676    0.2784 H   0  0  0  0  0  0  0  0  0  0  0  0
    5.0296    0.8983    0.4632 C   0  0  0  0  0  0  0  0  0  0  0  0
    4.2384   -0.2390    0.5018 C   0  0  0  0  0  0  0  0  0  0  0  0
    4.7105   -1.2259    0.6237 H   0  0  0  0  0  0  0  0  0  0  0  0
    2.8183   -0.1584    0.3937 C   0  0  0  0  0  0  0  0  0  0  0  0
    2.1052   -1.4019    0.4634 C   0  0  0  0  0  3  0  0  0  0  0  0
    2.7431   -2.3113    0.5458 H   0  0  0  0  0  0  0  0  0  0  0  0
    0.2679   -2.8971    0.4138 C   0  0  0  0  0  0  0  0  0  0  0  0
   -0.4150   -3.1055    1.2643 H   0  0  0  0  0  0  0  0  0  0  0  0
    1.0288   -3.7038    0.3331 H   0  0  0  0  0  0  0  0  0  0  0  0
    6.7708    0.7785    0.6047 Cl  0  0  0  0  0  0  0  0  0  0  0  0
    0.8050   -1.5675    0.4518 N   0  0  0  0  0  2  0  0  0  0  0  0
   -1.7211   -1.7776   -0.8796 O   0  0  0  0  0  1  0  0  0  0  0  0
   -1.5346   -4.3038   -1.0047 O   0  0  0  0  0  1  0  0  0  0  0  0
    0.1214   -2.8217   -2.2435 O   0  0  0  0  0  1  0  0  0  0  0  0
    0.9042    1.3211    0.0969 O   0  5  0  0  0  0  0  0  0  0  0  0
   -0.8209   -3.0153   -1.0774 S   0  0  0  0  0  0  0  0  0  0  0  0
  1  9  1  0  0  0  0
  2  1  2  0  0  0  0
  2  4  1  0  0  0  0
  3  2  1  0  0  0  0
  4  6  2  0  0  0  0
  5  4  1  0  0  0  0
  6  7  1  0  0  0  0
  6 15  1  0  0  0  0
  7  8  1  0  0  0  0
  9 10  1  0  0  0  0
  9  7  2  0  0  0  0
 10 11  1  0  0  0  0
 12 16  1  0  0  0  0
 12 13  1  0  0  0  0
 14 12  1  0  0  0  0
 16 10  1  0  0  0  0
 19 21  1  0  0  0  0
 20  1  1  0  0  0  0
 21 18  1  0  0  0  0
 21 17  1  0  0  0  0
 21 12  1  0  0  0  0
M  CHG  1  20  -1
M  END
