1,2,6
 OpenBabel05122313063D

 36 37  0  0  0  0  0  0  0  0999 V2000
   -1.5388   -1.2908    0.0300 O   0  5  0  0  0  0  0  0  0  0  0  0
    2.3046   -0.1878    0.0362 O   0  5  0  0  0  0  0  0  0  0  0  0
    8.6456   -0.5850    0.0353 O   0  0  0  0  0  0  0  0  0  0  0  0
    9.0932   -1.4474   -0.0499 H   0  0  0  0  0  0  0  0  0  0  0  0
   -4.0460   -1.6667   -0.0436 O   0  0  0  0  0  0  0  0  0  0  0  0
    1.1491   -2.4735   -0.0190 N   0  0  0  0  0  2  0  0  0  0  0  0
    2.5095   -2.5113   -0.0139 N   0  0  0  0  0  0  0  0  0  0  0  0
    5.3496   -2.2488   -0.0934 C   0  0  0  0  0  0  0  0  0  0  0  0
    4.9000   -3.2474   -0.1839 H   0  0  0  0  0  0  0  0  0  0  0  0
    3.0249   -1.2902    0.0120 C   0  0  0  0  0  0  0  0  0  0  0  0
   -3.8030   -4.1056   -0.0792 C   0  0  0  0  0  0  0  0  0  0  0  0
   -4.8877   -4.2788   -0.0972 H   0  0  0  0  0  0  0  0  0  0  0  0
    4.4941   -1.1312    0.0186 C   0  0  0  0  0  0  0  0  0  0  0  0
    6.7371   -2.0862   -0.0905 C   0  0  0  0  0  0  0  0  0  0  0  0
    7.3972   -2.9653   -0.1809 H   0  0  0  0  0  0  0  0  0  0  0  0
    0.4478   -3.5861   -0.0392 C   0  0  0  0  0  0  0  0  0  0  0  0
    1.0367   -4.5214   -0.0567 H   0  0  0  0  0  0  0  0  0  0  0  0
   -3.2981   -2.8064   -0.0483 C   0  0  0  0  0  0  0  0  0  0  0  0
   -1.8754   -2.5570   -0.0209 C   0  0  0  0  0  0  0  0  0  0  0  0
    6.4554    0.3235    0.1448 C   0  0  0  0  0  0  0  0  0  0  0  0
    6.9110    1.3195    0.2424 H   0  0  0  0  0  0  0  0  0  0  0  0
   -0.9876   -3.6879   -0.0449 C   0  0  0  0  0  0  0  0  0  0  0  0
    7.3019   -0.7982    0.0276 C   0  0  0  0  0  0  0  0  0  0  0  0
   -1.5467   -5.0051   -0.0770 C   0  0  0  0  0  3  0  0  0  0  0  0
   -0.8560   -5.8620   -0.0919 H   0  0  0  0  0  0  0  0  0  0  0  0
    5.0696    0.1539    0.1398 C   0  0  0  0  0  0  0  0  0  0  0  0
    4.4021    1.0217    0.2394 H   0  0  0  0  0  0  0  0  0  0  0  0
   -2.9160   -5.2118   -0.0910 C   0  0  0  0  0  0  0  0  0  0  0  0
   -3.3243   -6.2326   -0.1153 H   0  0  0  0  0  0  0  0  0  0  0  0
   -5.4613   -1.7679   -0.0040 C   0  0  0  0  0  0  0  0  0  0  0  0
   -6.0194   -0.3568    0.0462 C   0  0  0  0  0  0  0  0  0  0  0  0
   -5.6245    0.1838    0.9294 H   0  0  0  0  0  0  0  0  0  0  0  0
   -7.1255   -0.3794    0.1053 H   0  0  0  0  0  0  0  0  0  0  0  0
   -5.7275    0.2137   -0.8583 H   0  0  0  0  0  0  0  0  0  0  0  0
   -5.7751   -2.3546    0.8917 H   0  0  0  0  0  0  0  0  0  0  0  0
   -5.8348   -2.3173   -0.9013 H   0  0  0  0  0  0  0  0  0  0  0  0
  4  3  1  0  0  0  0
  5 30  1  0  0  0  0
  6  7  1  0  0  0  0
  7 10  2  0  0  0  0
  8 14  2  0  0  0  0
  8 13  1  0  0  0  0
  9  8  1  0  0  0  0
 10 13  1  0  0  0  0
 10  2  1  0  0  0  0
 11 18  1  0  0  0  0
 12 11  1  0  0  0  0
 13 26  2  0  0  0  0
 14 23  1  0  0  0  0
 15 14  1  0  0  0  0
 16  6  1  0  0  0  0
 17 16  1  0  0  0  0
 18  5  1  0  0  0  0
 18 19  2  0  0  0  0
 19  1  1  0  0  0  0
 20 21  1  0  0  0  0
 22 16  2  0  0  0  0
 22 19  1  0  0  0  0
 23  3  1  0  0  0  0
 23 20  2  0  0  0  0
 24 22  1  0  0  0  0
 25 24  1  0  0  0  0
 26 20  1  0  0  0  0
 26 27  1  0  0  0  0
 28 11  2  0  0  0  0
 28 24  1  0  0  0  0
 29 28  1  0  0  0  0
 30 31  1  0  0  0  0
 30 35  1  0  0  0  0
 31 33  1  0  0  0  0
 31 32  1  0  0  0  0
 34 31  1  0  0  0  0
 36 30  1  0  0  0  0
M  CHG  2   1  -1   2  -1
M  END
