1,6,7
 OpenBabel05122313063D

 54 55  0  0  0  0  0  0  0  0999 V2000
   -1.0178    0.6119   -0.0800 N   0  0  0  0  0  2  0  0  0  0  0  0
   -2.2398    1.2215   -0.1092 N   0  0  0  0  0  0  0  0  0  0  0  0
   -4.1708    3.1004   -0.1148 N   0  0  0  0  0  0  0  0  0  0  0  0
   -4.5042    4.0608   -0.1159 H   0  0  0  0  0  0  0  0  0  0  0  0
   -3.1676    2.8659   -0.1290 H   0  0  0  0  0  0  0  0  0  0  0  0
    0.8341   -1.3206   -0.2152 O   0  5  0  0  0  0  0  0  0  0  0  0
   -2.9163   -0.9696   -0.0617 O   0  5  0  0  0  0  0  0  0  0  0  0
    1.4113    0.9885   -0.0711 C   0  0  0  0  0  0  0  0  0  0  0  0
    1.7814   -0.3876   -0.1196 C   0  0  0  0  0  0  0  0  0  0  0  0
    3.1557   -0.7672   -0.0976 C   0  0  0  0  0  0  0  0  0  0  0  0
    4.0951    0.2727   -0.0354 C   0  0  0  0  0  0  0  0  0  0  0  0
    5.1577   -0.0022   -0.0178 H   0  0  0  0  0  0  0  0  0  0  0  0
    3.7702    1.6533    0.0052 C   0  0  0  0  0  0  0  0  0  0  0  0
    2.4184    1.9891   -0.0151 C   0  0  0  0  0  0  0  0  0  0  0  0
    2.0943    3.0387    0.0165 H   0  0  0  0  0  0  0  0  0  0  0  0
    0.0382    1.4019   -0.0903 C   0  0  0  0  0  3  0  0  0  0  0  0
   -0.1709    2.4878   -0.1054 H   0  0  0  0  0  0  0  0  0  0  0  0
   -3.2181    0.3237   -0.0730 C   0  0  0  0  0  0  0  0  0  0  0  0
   -4.6251    0.6983   -0.0602 C   0  0  0  0  0  0  0  0  0  0  0  0
   -5.0582    2.0739   -0.0767 C   0  0  0  0  0  0  0  0  0  0  0  0
   -6.4590    2.3277   -0.0532 C   0  0  0  0  0  0  0  0  0  0  0  0
   -6.8018    3.3742   -0.0641 H   0  0  0  0  0  0  0  0  0  0  0  0
   -7.3830    1.2883   -0.0182 C   0  0  0  0  0  0  0  0  0  0  0  0
   -8.4578    1.5266   -0.0011 H   0  0  0  0  0  0  0  0  0  0  0  0
   -6.9590   -0.0593   -0.0048 C   0  0  0  0  0  0  0  0  0  0  0  0
   -7.6934   -0.8765    0.0225 H   0  0  0  0  0  0  0  0  0  0  0  0
   -5.5961   -0.3363   -0.0260 C   0  0  0  0  0  0  0  0  0  0  0  0
   -5.2305   -1.3725   -0.0152 H   0  0  0  0  0  0  0  0  0  0  0  0
    3.5737   -2.2484   -0.1305 C   0  0  0  0  0  0  0  0  0  0  0  0
    4.8982    2.6963    0.0714 C   0  0  0  0  0  0  0  0  0  0  0  0
    3.0154   -2.9683    1.1210 C   0  0  0  0  0  0  0  0  0  0  0  0
    3.4174   -2.5116    2.0480 H   0  0  0  0  0  0  0  0  0  0  0  0
    3.3173   -4.0356    1.1075 H   0  0  0  0  0  0  0  0  0  0  0  0
    1.9117   -2.9291    1.1680 H   0  0  0  0  0  0  0  0  0  0  0  0
    3.0390   -2.9198   -1.4182 C   0  0  0  0  0  0  0  0  0  0  0  0
    1.9348   -2.9031   -1.4662 H   0  0  0  0  0  0  0  0  0  0  0  0
    3.3668   -3.9790   -1.4520 H   0  0  0  0  0  0  0  0  0  0  0  0
    3.4363   -2.4113   -2.3202 H   0  0  0  0  0  0  0  0  0  0  0  0
    5.1056   -2.4052   -0.1196 C   0  0  0  0  0  0  0  0  0  0  0  0
    5.5803   -1.9311   -1.0027 H   0  0  0  0  0  0  0  0  0  0  0  0
    5.3619   -3.4829   -0.1444 H   0  0  0  0  0  0  0  0  0  0  0  0
    5.5640   -1.9780    0.7954 H   0  0  0  0  0  0  0  0  0  0  0  0
    4.3503    4.1330    0.1066 C   0  0  0  0  0  0  0  0  0  0  0  0
    5.1901    4.8548    0.1532 H   0  0  0  0  0  0  0  0  0  0  0  0
    3.7113    4.3090    0.9956 H   0  0  0  0  0  0  0  0  0  0  0  0
    3.7577    4.3706   -0.8000 H   0  0  0  0  0  0  0  0  0  0  0  0
    5.7346    2.4597    1.3495 C   0  0  0  0  0  0  0  0  0  0  0  0
    6.1878    1.4485    1.3650 H   0  0  0  0  0  0  0  0  0  0  0  0
    5.1079    2.5626    2.2583 H   0  0  0  0  0  0  0  0  0  0  0  0
    6.5605    3.1980    1.4138 H   0  0  0  0  0  0  0  0  0  0  0  0
    5.8021    2.5476   -1.1736 C   0  0  0  0  0  0  0  0  0  0  0  0
    6.2577    1.5393   -1.2353 H   0  0  0  0  0  0  0  0  0  0  0  0
    6.6287    3.2872   -1.1422 H   0  0  0  0  0  0  0  0  0  0  0  0
    5.2246    2.7145   -2.1052 H   0  0  0  0  0  0  0  0  0  0  0  0
  2  1  1  0  0  0  0
  2 18  2  0  0  0  0
  3 20  1  0  0  0  0
  4  3  1  0  0  0  0
  5  3  1  0  0  0  0
  6  9  1  0  0  0  0
  8 14  1  0  0  0  0
  9 10  1  0  0  0  0
  9  8  2  0  0  0  0
 10 11  2  0  0  0  0
 11 12  1  0  0  0  0
 11 13  1  0  0  0  0
 13 30  1  0  0  0  0
 14 13  2  0  0  0  0
 14 15  1  0  0  0  0
 16  1  1  0  0  0  0
 16  8  1  0  0  0  0
 17 16  1  0  0  0  0
 18  7  1  0  0  0  0
 18 19  1  0  0  0  0
 19 27  1  0  0  0  0
 20 19  2  0  0  0  0
 20 21  1  0  0  0  0
 21 23  2  0  0  0  0
 22 21  1  0  0  0  0
 23 25  1  0  0  0  0
 23 24  1  0  0  0  0
 25 26  1  0  0  0  0
 27 28  1  0  0  0  0
 27 25  2  0  0  0  0
 29 39  1  0  0  0  0
 29 10  1  0  0  0  0
 29 31  1  0  0  0  0
 30 43  1  0  0  0  0
 30 47  1  0  0  0  0
 31 34  1  0  0  0  0
 31 32  1  0  0  0  0
 33 31  1  0  0  0  0
 35 29  1  0  0  0  0
 36 35  1  0  0  0  0
 37 35  1  0  0  0  0
 38 35  1  0  0  0  0
 39 42  1  0  0  0  0
 40 39  1  0  0  0  0
 41 39  1  0  0  0  0
 43 44  1  0  0  0  0
 43 45  1  0  0  0  0
 46 43  1  0  0  0  0
 47 48  1  0  0  0  0
 47 50  1  0  0  0  0
 47 49  1  0  0  0  0
 51 53  1  0  0  0  0
 51 30  1  0  0  0  0
 52 51  1  0  0  0  0
 54 51  1  0  0  0  0
M  CHG  2   6  -1   7  -1
M  END
