1,3,4
 OpenBabel05122313063D

 29 30  0  0  0  0  0  0  0  0999 V2000
    0.7310    1.3342   -0.0007 N   0  0  0  0  0  2  0  0  0  0  0  0
    1.9002    2.0215   -0.0007 N   0  0  0  0  0  0  0  0  0  0  0  0
   -1.0726   -0.9091   -0.0006 O   0  5  0  0  0  0  0  0  0  0  0  0
    2.9418   -0.0635   -0.0003 O   0  5  0  0  0  0  0  0  0  0  0  0
    3.3058    4.1412   -0.0009 O   0  0  0  0  0  0  0  0  0  0  0  0
    2.4991    3.5001   -0.0009 H   0  0  0  0  0  0  0  0  0  0  0  0
   -5.5515    3.1937   -0.0004 Br  0  0  0  0  0  0  0  0  0  0  0  0
   -3.7644   -2.2332   -0.0001 Br  0  0  0  0  0  0  0  0  0  0  0  0
   -4.1254    1.9277   -0.0005 C   0  0  0  0  0  0  0  0  0  0  0  0
   -4.4257    0.5502   -0.0003 C   0  0  0  0  0  0  0  0  0  0  0  0
   -5.4672    0.2021   -0.0002 H   0  0  0  0  0  0  0  0  0  0  0  0
   -3.3752   -0.3648   -0.0003 C   0  0  0  0  0  0  0  0  0  0  0  0
   -1.9875    0.0085   -0.0005 C   0  0  0  0  0  0  0  0  0  0  0  0
   -1.7237    1.4367   -0.0007 C   0  0  0  0  0  0  0  0  0  0  0  0
   -2.8031    2.3612   -0.0006 C   0  0  0  0  0  0  0  0  0  0  0  0
   -2.5793    3.4383   -0.0007 H   0  0  0  0  0  0  0  0  0  0  0  0
   -0.3943    2.0068   -0.0008 C   0  0  0  0  0  3  0  0  0  0  0  0
   -0.3223    3.1135   -0.0009 H   0  0  0  0  0  0  0  0  0  0  0  0
    2.9940    1.2253   -0.0005 C   0  0  0  0  0  0  0  0  0  0  0  0
    4.2953    1.9209   -0.0005 C   0  0  0  0  0  0  0  0  0  0  0  0
    4.3824    3.3541   -0.0007 C   0  0  0  0  0  0  0  0  0  0  0  0
    5.6656    3.9553   -0.0006 C   0  0  0  0  0  0  0  0  0  0  0  0
    5.7119    5.0541   -0.0008 H   0  0  0  0  0  0  0  0  0  0  0  0
    6.8222    3.1747   -0.0004 C   0  0  0  0  0  0  0  0  0  0  0  0
    7.8065    3.6689   -0.0004 H   0  0  0  0  0  0  0  0  0  0  0  0
    6.7421    1.7659   -0.0002 C   0  0  0  0  0  0  0  0  0  0  0  0
    7.6573    1.1558   -0.0000 H   0  0  0  0  0  0  0  0  0  0  0  0
    5.4858    1.1584   -0.0003 C   0  0  0  0  0  0  0  0  0  0  0  0
    5.3830    0.0631   -0.0001 H   0  0  0  0  0  0  0  0  0  0  0  0
  2  1  1  0  0  0  0
  2 19  2  0  0  0  0
  3 13  1  0  0  0  0
  5  6  1  0  0  0  0
  5 21  1  0  0  0  0
  9  7  1  0  0  0  0
  9 10  1  0  0  0  0
 10 11  1  0  0  0  0
 12 10  2  0  0  0  0
 12  8  1  0  0  0  0
 13 12  1  0  0  0  0
 14 15  1  0  0  0  0
 14 13  2  0  0  0  0
 15  9  2  0  0  0  0
 16 15  1  0  0  0  0
 17  1  1  0  0  0  0
 17 14  1  0  0  0  0
 18 17  1  0  0  0  0
 19 20  1  0  0  0  0
 19  4  1  0  0  0  0
 20 28  1  0  0  0  0
 21 22  1  0  0  0  0
 21 20  2  0  0  0  0
 22 24  2  0  0  0  0
 23 22  1  0  0  0  0
 24 25  1  0  0  0  0
 24 26  1  0  0  0  0
 26 27  1  0  0  0  0
 28 26  2  0  0  0  0
 28 29  1  0  0  0  0
M  CHG  2   3  -1   4  -1
M  END
