1,2,3
 OpenBabel05122313063D

 32 34  0  0  1  0  0  0  0  0999 V2000
    2.4467   -0.0263    0.3400 N   0  0  0  0  0  2  0  0  0  0  0  0
    0.6251    1.7038   -1.3120 O   0  5  0  0  0  0  0  0  0  0  0  0
    0.4033   -1.3237    1.3427 O   0  0  0  0  0  1  0  0  0  0  0  0
    1.7037    2.4334   -1.3581 C   0  0  0  0  0  0  0  0  0  0  0  0
    1.6221    3.6626   -2.0861 C   0  0  0  0  0  0  0  0  0  0  0  0
    0.6484    3.8953   -2.5401 H   0  0  0  0  0  0  0  0  0  0  0  0
    2.7055    4.5189   -2.2115 C   0  0  0  0  0  0  0  0  0  0  0  0
    2.5902    5.4550   -2.7801 H   0  0  0  0  0  0  0  0  0  0  0  0
    3.9560    4.2083   -1.6168 C   0  0  0  0  0  0  0  0  0  0  0  0
    4.8099    4.8927   -1.7196 H   0  0  0  0  0  0  0  0  0  0  0  0
    4.0787    3.0272   -0.9059 C   0  0  0  0  0  0  0  0  0  0  0  0
    5.0415    2.7662   -0.4373 H   0  0  0  0  0  0  0  0  0  0  0  0
    2.9897    2.1117   -0.7441 C   0  0  0  0  0  0  0  0  0  0  0  0
    3.2808    0.9351    0.0179 C   0  0  0  0  0  3  0  0  0  0  0  0
    4.3242    0.8423    0.3859 H   0  0  0  0  0  0  0  0  0  0  0  0
    2.8349   -1.1727    1.1657 C   0  0  2  0  0  0  0  0  0  0  0  0
    3.7087   -0.9031    1.8025 H   0  0  0  0  0  0  0  0  0  0  0  0
    3.1160   -2.4331    0.3633 C   0  0  0  0  0  0  0  0  0  0  0  0
    3.8428   -2.5668   -0.8244 C   0  0  0  0  0  0  0  0  0  0  0  0
    4.2861   -1.6871   -1.3166 H   0  0  0  0  0  0  0  0  0  0  0  0
    3.9740   -3.8449   -1.3938 C   0  0  0  0  0  0  0  0  0  0  0  0
    4.5342   -3.9712   -2.3324 H   0  0  0  0  0  0  0  0  0  0  0  0
    3.3802   -4.9611   -0.7782 C   0  0  0  0  0  0  0  0  0  0  0  0
    3.4837   -5.9554   -1.2390 H   0  0  0  0  0  0  0  0  0  0  0  0
    2.6421   -4.8183    0.4100 C   0  0  0  0  0  0  0  0  0  0  0  0
    2.1658   -5.6938    0.8779 H   0  0  0  0  0  0  0  0  0  0  0  0
    2.5082   -3.5450    0.9793 C   0  0  0  0  0  0  0  0  0  0  0  0
    1.7683   -3.1176    2.2258 C   0  0  0  0  0  0  0  0  0  0  0  0
    2.3558   -3.3500    3.1416 H   0  0  0  0  0  0  0  0  0  0  0  0
    0.7725   -3.5911    2.3419 H   0  0  0  0  0  0  0  0  0  0  0  0
    1.6152   -1.5936    2.0448 C   0  0  2  0  0  0  0  0  0  0  0  0
    1.5969   -1.0375    3.0081 H   0  0  0  0  0  0  0  0  0  0  0  0
  1 16  1  0  0  0  0
  3 31  1  0  0  0  0
  4  2  1  0  0  0  0
  4 13  1  0  0  0  0
  5  4  2  0  0  0  0
  6  5  1  0  0  0  0
  7  5  1  0  0  0  0
  7  9  2  0  0  0  0
  8  7  1  0  0  0  0
  9 11  1  0  0  0  0
 10  9  1  0  0  0  0
 11 13  2  0  0  0  0
 11 12  1  0  0  0  0
 13 14  1  0  0  0  0
 14  1  1  0  0  0  0
 14 15  1  0  0  0  0
 16 17  1  1  0  0  0
 16 31  1  0  0  0  0
 18 27  1  0  0  0  0
 18 16  1  0  0  0  0
 19 18  2  0  0  0  0
 20 19  1  0  0  0  0
 21 19  1  0  0  0  0
 21 23  2  0  0  0  0
 22 21  1  0  0  0  0
 23 25  1  0  0  0  0
 24 23  1  0  0  0  0
 25 26  1  0  0  0  0
 25 27  2  0  0  0  0
 27 28  1  0  0  0  0
 28 30  1  0  0  0  0
 28 29  1  0  0  0  0
 31 28  1  0  0  0  0
 31 32  1  1  0  0  0
M  CHG  1   2  -1
M  END
