1,2,9
 OpenBabel05122313063D

 25 24  0  0  1  0  0  0  0  0999 V2000
    2.0398   -0.8822   -0.8322 O   0  0  0  0  0  1  0  0  0  0  0  0
   -1.6395    1.3702   -0.2652 O   0  0  0  0  0  1  0  0  0  0  0  0
   -0.6370   -1.6843    1.7602 O   0  0  0  0  0  0  0  0  0  0  0  0
   -3.7693    1.5306    0.4652 N   0  0  0  0  0  0  0  0  0  0  0  0
    3.7327   -2.3053   -0.3983 N   0  0  0  0  0  0  0  0  0  0  0  0
    2.1287   -1.8553    1.3888 C   0  0  0  0  0  0  0  0  0  0  0  0
    2.9621   -2.1901    2.0383 H   0  0  0  0  0  0  0  0  0  0  0  0
    1.3819   -2.6796    1.3598 H   0  0  0  0  0  0  0  0  0  0  0  0
    0.0573   -0.4670    1.5200 N   0  0  0  0  0  0  0  0  0  0  0  0
    2.6192   -1.6256   -0.0246 C   0  0  2  0  0  3  0  0  0  0  0  0
    1.4347   -0.6540    2.0268 C   0  0  0  0  0  0  0  0  0  0  0  0
    1.3812   -0.8256    3.1269 H   0  0  0  0  0  0  0  0  0  0  0  0
    1.9695    0.2964    1.8305 H   0  0  0  0  0  0  0  0  0  0  0  0
   -0.5982    0.6141    2.3011 C   0  0  0  0  0  0  0  0  0  0  0  0
   -0.0693    1.5509    2.0322 H   0  0  0  0  0  0  0  0  0  0  0  0
   -0.4496    0.4067    3.3860 H   0  0  0  0  0  0  0  0  0  0  0  0
   -2.4625    1.2163    0.6510 C   0  0  2  0  0  3  0  0  0  0  0  0
   -2.0940    0.7024    2.0307 C   0  0  0  0  0  0  0  0  0  0  0  0
   -2.5402   -0.3075    2.1506 H   0  0  0  0  0  0  0  0  0  0  0  0
   -2.5626    1.3557    2.7959 H   0  0  0  0  0  0  0  0  0  0  0  0
    4.2324   -2.9228    0.2381 H   0  0  0  0  0  0  0  0  0  0  0  0
   -4.4750    1.3241    1.1698 H   0  0  0  0  0  0  0  0  0  0  0  0
    4.0540   -2.2148   -1.3634 H   0  0  0  0  0  0  0  0  0  0  0  0
   -4.0723    1.7793   -0.4775 H   0  0  0  0  0  0  0  0  0  0  0  0
   -1.2803   -1.7596    0.9453 H   0  0  0  0  0  0  0  0  0  0  0  0
  4 17  1  0  0  0  0
  4 22  1  0  0  0  0
  5 10  1  0  0  0  0
  5 21  1  0  0  0  0
  6 11  1  0  0  0  0
  6  7  1  0  0  0  0
  8  6  1  0  0  0  0
  9  3  1  0  0  0  0
  9 11  1  0  0  0  0
  9 14  1  0  0  0  0
 10  1  1  6  0  0  0
 10  6  1  0  0  0  0
 11 12  1  0  0  0  0
 13 11  1  0  0  0  0
 14 16  1  0  0  0  0
 15 14  1  0  0  0  0
 17  2  1  1  0  0  0
 17 18  1  0  0  0  0
 18 19  1  0  0  0  0
 18 14  1  0  0  0  0
 18 20  1  0  0  0  0
 23  5  1  0  0  0  0
 24  4  1  0  0  0  0
 25  3  1  0  0  0  0
M  END
