1,2,3
 OpenBabel05122313063D

 49 51  0  0  1  0  0  0  0  0999 V2000
   -0.1206   -0.0347    1.8842 N   0  0  0  0  0  0  0  0  0  0  0  0
   -2.0798    1.2055    0.5975 O   0  0  0  0  0  1  0  0  0  0  0  0
    0.4267   -0.4382   -0.7014 O   0  0  0  0  0  1  0  0  0  0  0  0
   -1.7976    1.8176    1.8414 C   0  0  0  0  0  0  0  0  0  0  0  0
   -0.3630    1.3706    2.2368 C   0  0  0  0  0  0  0  0  0  0  0  0
    0.3457    1.9919    1.6607 H   0  0  0  0  0  0  0  0  0  0  0  0
   -0.1671    1.5569    3.3193 H   0  0  0  0  0  0  0  0  0  0  0  0
   -2.8717    1.3941    2.8563 C   0  0  0  0  0  0  0  0  0  0  0  0
   -2.9243    0.2930    2.9470 H   0  0  0  0  0  0  0  0  0  0  0  0
   -3.8628    1.7493    2.5112 H   0  0  0  0  0  0  0  0  0  0  0  0
   -2.6753    1.8258    3.8588 H   0  0  0  0  0  0  0  0  0  0  0  0
   -1.8097    3.3418    1.6533 C   0  0  0  0  0  0  0  0  0  0  0  0
   -1.0986    3.6296    0.8536 H   0  0  0  0  0  0  0  0  0  0  0  0
   -1.5228    3.8637    2.5894 H   0  0  0  0  0  0  0  0  0  0  0  0
   -2.8229    3.6812    1.3612 H   0  0  0  0  0  0  0  0  0  0  0  0
    1.5497   -0.0069    0.0108 C   0  0  0  0  0  0  0  0  0  0  0  0
    1.2856   -0.3744    1.5114 C   0  0  2  0  0  0  0  0  0  0  0  0
    2.0005    0.1650    2.1764 H   0  0  0  0  0  0  0  0  0  0  0  0
    1.3598   -1.8803    1.7808 C   0  0  0  0  0  0  0  0  0  0  0  0
    2.4008   -2.2427    1.8555 H   0  0  0  0  0  0  0  0  0  0  0  0
    0.8704   -2.4114    0.9391 H   0  0  0  0  0  0  0  0  0  0  0  0
    0.5567   -2.0399    3.0721 C   0  0  0  0  0  0  0  0  0  0  0  0
    0.1731   -3.0682    3.2204 H   0  0  0  0  0  0  0  0  0  0  0  0
    1.1937   -1.7930    3.9467 H   0  0  0  0  0  0  0  0  0  0  0  0
   -0.5762   -1.0129    2.9257 C   0  0  0  0  0  0  0  0  0  0  0  0
   -1.5145   -1.4899    2.5844 H   0  0  0  0  0  0  0  0  0  0  0  0
   -0.7787   -0.4785    3.8777 H   0  0  0  0  0  0  0  0  0  0  0  0
    2.7987   -0.7402   -0.5175 C   0  0  0  0  0  0  0  0  0  0  0  0
    2.7094   -1.4502   -1.7280 C   0  0  0  0  0  0  0  0  0  0  0  0
    1.7413   -1.4685   -2.2477 H   0  0  0  0  0  0  0  0  0  0  0  0
    3.8277   -2.1194   -2.2488 C   0  0  0  0  0  0  0  0  0  0  0  0
    3.7390   -2.6687   -3.1989 H   0  0  0  0  0  0  0  0  0  0  0  0
    5.0519   -2.0927   -1.5644 C   0  0  0  0  0  0  0  0  0  0  0  0
    5.9289   -2.6189   -1.9710 H   0  0  0  0  0  0  0  0  0  0  0  0
    5.1487   -1.3897   -0.3528 C   0  0  0  0  0  0  0  0  0  0  0  0
    6.1021   -1.3648    0.1971 H   0  0  0  0  0  0  0  0  0  0  0  0
    4.0321   -0.7168    0.1644 C   0  0  0  0  0  0  0  0  0  0  0  0
    4.1318   -0.1772    1.1176 H   0  0  0  0  0  0  0  0  0  0  0  0
    1.7547    1.5111   -0.2119 C   0  0  0  0  0  0  0  0  0  0  0  0
    2.6554    2.2754    0.5583 C   0  0  0  0  0  0  0  0  0  0  0  0
    3.2481    1.8013    1.3541 H   0  0  0  0  0  0  0  0  0  0  0  0
    2.7955    3.6542    0.3435 C   0  0  0  0  0  0  0  0  0  0  0  0
    3.4952    4.2333    0.9655 H   0  0  0  0  0  0  0  0  0  0  0  0
    2.0455    4.2948   -0.6561 C   0  0  0  0  0  0  0  0  0  0  0  0
    2.1525    5.3775   -0.8219 H   0  0  0  0  0  0  0  0  0  0  0  0
    1.1630    3.5389   -1.4421 C   0  0  0  0  0  0  0  0  0  0  0  0
    0.5739    4.0249   -2.2353 H   0  0  0  0  0  0  0  0  0  0  0  0
    1.0223    2.1596   -1.2241 C   0  0  0  0  0  0  0  0  0  0  0  0
    0.3277    1.5665   -1.8355 H   0  0  0  0  0  0  0  0  0  0  0  0
  1  5  1  0  0  0  0
  1 25  1  0  0  0  0
  2  4  1  0  0  0  0
  3 16  1  0  0  0  0
  4  5  1  0  0  0  0
  4  8  1  0  0  0  0
  5  7  1  0  0  0  0
  6  5  1  0  0  0  0
  8  9  1  0  0  0  0
  8 11  1  0  0  0  0
 10  8  1  0  0  0  0
 12  4  1  0  0  0  0
 12 14  1  0  0  0  0
 13 12  1  0  0  0  0
 15 12  1  0  0  0  0
 16 17  1  0  0  0  0
 17 19  1  0  0  0  0
 17  1  1  0  0  0  0
 17 18  1  1  0  0  0
 19 20  1  0  0  0  0
 19 22  1  0  0  0  0
 21 19  1  0  0  0  0
 22 23  1  0  0  0  0
 22 24  1  0  0  0  0
 25 22  1  0  0  0  0
 25 27  1  0  0  0  0
 26 25  1  0  0  0  0
 28 16  1  0  0  0  0
 28 37  1  0  0  0  0
 29 28  2  0  0  0  0
 30 29  1  0  0  0  0
 31 29  1  0  0  0  0
 31 33  2  0  0  0  0
 32 31  1  0  0  0  0
 33 35  1  0  0  0  0
 34 33  1  0  0  0  0
 35 37  2  0  0  0  0
 35 36  1  0  0  0  0
 37 38  1  0  0  0  0
 39 16  1  0  0  0  0
 39 40  1  0  0  0  0
 40 41  1  0  0  0  0
 42 40  2  0  0  0  0
 42 43  1  0  0  0  0
 44 42  1  0  0  0  0
 45 44  1  0  0  0  0
 46 48  1  0  0  0  0
 46 44  2  0  0  0  0
 47 46  1  0  0  0  0
 48 39  2  0  0  0  0
 49 48  1  0  0  0  0
M  END
