1,2,4
 OpenBabel05122313063D

 21 20  0  0  1  0  0  0  0  0999 V2000
   -0.9931    1.2265    0.0148 O   0  0  0  0  0  1  0  0  0  0  0  0
   -0.1032   -2.3378   -0.0428 O   0  5  0  0  0  0  0  0  0  0  0  0
   -2.3944   -2.5717    0.0023 N   0  0  0  0  0  0  0  0  0  0  0  0
   -2.3027   -1.2075    0.0075 N   0  0  0  0  0  2  0  0  0  0  0  0
   -1.1862   -3.0894   -0.0299 C   0  0  0  0  0  0  0  0  0  0  0  0
   -4.9457   -1.9481   -1.0579 F   0  0  0  0  0  0  0  0  0  0  0  0
   -1.6213    3.6756   -1.1464 F   0  0  0  0  0  0  0  0  0  0  0  0
   -4.9191   -1.9504    1.1284 F   0  0  0  0  0  0  0  0  0  0  0  0
   -1.6011    3.7364    1.0320 F   0  0  0  0  0  0  0  0  0  0  0  0
   -5.7795   -0.2704    0.0471 F   0  0  0  0  0  0  0  0  0  0  0  0
   -2.2086    1.6822    0.0030 C   0  0  1  0  0  3  0  0  0  0  0  0
   -3.4120   -0.4703    0.0192 C   0  0  0  0  0  0  0  0  0  0  0  0
   -2.2457    3.2080   -0.0320 C   0  0  0  0  0  0  0  0  0  0  0  0
   -3.3860    0.9492    0.0118 C   0  0  0  0  0  0  0  0  0  0  0  0
   -4.3400    1.4847    0.0099 H   0  0  0  0  0  0  0  0  0  0  0  0
   -4.7691   -1.1782    0.0339 C   0  0  0  0  0  0  0  0  0  0  0  0
   -3.5052    3.6941   -0.0380 F   0  0  0  0  0  0  0  0  0  0  0  0
   -0.9934   -4.5745   -0.0564 C   0  0  0  0  0  0  0  0  0  0  0  0
   -0.3302   -4.8846    0.7761 H   0  0  0  0  0  0  0  0  0  0  0  0
   -0.4942   -4.8778   -0.9997 H   0  0  0  0  0  0  0  0  0  0  0  0
   -1.9662   -5.0896    0.0249 H   0  0  0  0  0  0  0  0  0  0  0  0
  2  5  1  0  0  0  0
  3  4  1  0  0  0  0
  4 12  1  0  0  0  0
  5  3  2  0  0  0  0
  6 16  1  0  0  0  0
  7 13  1  0  0  0  0
 11 14  1  0  0  0  0
 11  1  1  6  0  0  0
 12 16  1  0  0  0  0
 13 11  1  0  0  0  0
 13  9  1  0  0  0  0
 14 12  2  0  0  0  0
 15 14  1  0  0  0  0
 16 10  1  0  0  0  0
 16  8  1  0  0  0  0
 17 13  1  0  0  0  0
 18  5  1  0  0  0  0
 18 21  1  0  0  0  0
 18 19  1  0  0  0  0
 20 18  1  0  0  0  0
M  CHG  1   2  -1
M  END
