1,2,3
 OpenBabel05122313063D

 25 25  0  0  1  0  0  0  0  0999 V2000
    0.1343   -1.1462   -1.9081 O   0  0  0  0  0  1  0  0  0  0  0  0
   -0.0158   -0.1004    2.1599 O   0  0  0  0  0  1  0  0  0  0  0  0
    0.0560    1.3181   -0.3973 N   0  0  0  0  0  2  0  0  0  0  0  0
    1.2660    0.7970   -2.3727 N   0  0  0  0  0  0  0  0  0  0  0  0
    2.1268    1.1520   -2.7994 H   0  0  0  0  0  0  0  0  0  0  0  0
   -1.1451    1.8305    1.5925 N   0  0  0  0  0  0  0  0  0  0  0  0
   -1.8968    2.4423    1.9123 H   0  0  0  0  0  0  0  0  0  0  0  0
    0.5832    1.7240   -1.5675 C   0  0  2  0  0  3  0  0  0  0  0  0
    0.5032    3.0526   -2.0170 C   0  0  0  0  0  0  0  0  0  0  0  0
    0.9430    3.3320   -2.9838 H   0  0  0  0  0  0  0  0  0  0  0  0
   -0.1654    3.9830   -1.2186 C   0  0  0  0  0  0  0  0  0  0  0  0
   -0.2543    5.0305   -1.5405 H   0  0  0  0  0  0  0  0  0  0  0  0
   -0.7243    3.5682   -0.0093 C   0  0  0  0  0  0  0  0  0  0  0  0
   -1.2517    4.2733    0.6483 H   0  0  0  0  0  0  0  0  0  0  0  0
   -0.5847    2.2186    0.3657 C   0  0  0  0  0  0  0  0  0  0  0  0
    1.0447   -0.5528   -2.5102 C   0  0  1  0  0  3  0  0  0  0  0  0
    2.0252   -1.2644   -3.3976 C   0  0  0  0  0  0  0  0  0  0  0  0
    2.9818   -1.3018   -2.8308 H   0  0  0  0  0  0  0  0  0  0  0  0
    2.2103   -0.7253   -4.3470 H   0  0  0  0  0  0  0  0  0  0  0  0
    1.6609   -2.2864   -3.5955 H   0  0  0  0  0  0  0  0  0  0  0  0
   -0.8909    0.7471    2.3948 C   0  0  1  0  0  3  0  0  0  0  0  0
   -1.7907    0.6178    3.5961 C   0  0  0  0  0  0  0  0  0  0  0  0
   -1.2356    0.1152    4.4080 H   0  0  0  0  0  0  0  0  0  0  0  0
   -2.6352   -0.0382    3.2968 H   0  0  0  0  0  0  0  0  0  0  0  0
   -2.2016    1.5818    3.9519 H   0  0  0  0  0  0  0  0  0  0  0  0
  3 15  1  0  0  0  0
  5  4  1  0  0  0  0
  6  7  1  0  0  0  0
  6 21  1  0  0  0  0
  8  4  1  1  0  0  0
  8  3  1  0  0  0  0
  9  8  1  0  0  0  0
  9 11  2  0  0  0  0
 10  9  1  0  0  0  0
 11 13  1  0  0  0  0
 12 11  1  0  0  0  0
 13 15  2  0  0  0  0
 13 14  1  0  0  0  0
 15  6  1  0  0  0  0
 16  4  1  0  0  0  0
 16  1  1  1  0  0  0
 17 18  1  0  0  0  0
 17 16  1  0  0  0  0
 19 17  1  0  0  0  0
 20 17  1  0  0  0  0
 21  2  1  6  0  0  0
 21 22  1  0  0  0  0
 22 25  1  0  0  0  0
 22 23  1  0  0  0  0
 24 22  1  0  0  0  0
M  END
