1,3,4
 OpenBabel05122313063D

 24 25  0  0  0  0  0  0  0  0999 V2000
    2.7702   -0.4949   -0.0058 N   0  0  0  0  0  2  0  0  0  0  0  0
    3.7201    0.3522   -0.0151 N   0  0  0  0  0  0  0  0  0  0  0  0
    0.6788   -2.1784    0.0042 O   0  5  0  0  0  0  0  0  0  0  0  0
    1.0406    1.8231    0.0225 O   0  5  0  0  0  0  0  0  0  0  0  0
    1.8901   -2.7085   -0.0099 C   0  0  0  0  0  0  0  0  0  0  0  0
    2.0835   -4.1166   -0.0199 C   0  0  0  0  0  0  0  0  0  0  0  0
    3.3734   -4.6467   -0.0300 C   0  0  0  0  0  0  0  0  0  0  0  0
    4.5136   -3.8057   -0.0305 C   0  0  0  0  0  0  0  0  0  0  0  0
    4.3560   -2.4209   -0.0214 C   0  0  0  0  0  0  0  0  0  0  0  0
    3.0543   -1.8736   -0.0118 C   0  0  0  0  0  0  0  0  0  0  0  0
    3.5055    1.7061   -0.0064 C   0  0  0  0  0  0  0  0  0  0  0  0
    2.2173    2.3897    0.0125 C   0  0  0  0  0  0  0  0  0  0  0  0
    2.2403    3.8198    0.0216 C   0  0  0  0  0  0  0  0  0  0  0  0
    3.4276    4.5387    0.0095 C   0  0  0  0  0  0  0  0  0  0  0  0
    4.6794    3.8721   -0.0113 C   0  0  0  0  0  0  0  0  0  0  0  0
    4.7026    2.4876   -0.0184 C   0  0  0  0  0  3  0  0  0  0  0  0
    1.1931   -4.7619   -0.0158 H   0  0  0  0  0  0  0  0  0  0  0  0
    3.5058   -5.7399   -0.0367 H   0  0  0  0  0  0  0  0  0  0  0  0
    5.5219   -4.2449   -0.0387 H   0  0  0  0  0  0  0  0  0  0  0  0
    5.2136   -1.7346   -0.0226 H   0  0  0  0  0  0  0  0  0  0  0  0
    1.2622    4.3230    0.0414 H   0  0  0  0  0  0  0  0  0  0  0  0
    3.3920    5.6393    0.0175 H   0  0  0  0  0  0  0  0  0  0  0  0
    5.6172    4.4460   -0.0207 H   0  0  0  0  0  0  0  0  0  0  0  0
    5.6479    1.9261   -0.0334 H   0  0  0  0  0  0  0  0  0  0  0  0
  2 11  2  0  0  0  0
  2  1  1  0  0  0  0
  5  3  1  0  0  0  0
  6 17  1  0  0  0  0
  6  5  2  0  0  0  0
  7  6  1  0  0  0  0
  8  7  2  0  0  0  0
  8  9  1  0  0  0  0
  9 10  2  0  0  0  0
 10  5  1  0  0  0  0
 10  1  1  0  0  0  0
 11 12  1  0  0  0  0
 12 13  2  0  0  0  0
 12  4  1  0  0  0  0
 13 21  1  0  0  0  0
 14 22  1  0  0  0  0
 14 13  1  0  0  0  0
 15 14  2  0  0  0  0
 16 15  1  0  0  0  0
 16 11  1  0  0  0  0
 18  7  1  0  0  0  0
 19  8  1  0  0  0  0
 20  9  1  0  0  0  0
 23 15  1  0  0  0  0
 24 16  1  0  0  0  0
M  CHG  2   3  -1   4  -1
M  END
