1,9,11
 OpenBabel05122313063D

 16 16  0  0  0  0  0  0  0  0999 V2000
   -1.7342   -0.2718    0.1323 N   0  0  0  0  0  2  0  0  0  0  0  0
   -1.7595    0.7651   -1.9122 C   0  0  0  0  0  0  0  0  0  0  0  0
   -2.5666    0.1403   -0.8590 C   0  0  0  0  0  0  0  0  0  0  0  0
   -3.9506   -0.0700   -0.7644 C   0  0  0  0  0  0  0  0  0  0  0  0
   -4.4458   -0.7152    0.3823 C   0  0  0  0  0  0  0  0  0  0  0  0
   -3.5568   -1.1399    1.3940 C   0  0  0  0  0  0  0  0  0  0  0  0
   -2.1894   -0.9058    1.2331 C   0  0  0  0  0  0  0  0  0  0  0  0
   -1.0526   -1.2668    2.1716 C   0  0  0  0  0  0  0  0  0  0  0  0
   -0.5128    0.7853   -1.7829 O   0  5  0  0  0  0  0  0  0  0  0  0
   -2.3800    1.2608   -2.9760 O   0  0  0  0  0  0  0  0  0  0  0  0
    0.1193   -0.9177    1.6746 O   0  5  0  0  0  0  0  0  0  0  0  0
   -1.2469   -1.7980    3.2582 O   0  0  0  0  0  0  0  0  0  0  0  0
   -1.6910    1.6530   -3.5553 H   0  0  0  0  0  0  0  0  0  0  0  0
   -4.6124    0.2635   -1.5756 H   0  0  0  0  0  0  0  0  0  0  0  0
   -5.5257   -0.8969    0.4839 H   0  0  0  0  0  0  0  0  0  0  0  0
   -3.8945   -1.6565    2.3043 H   0  0  0  0  0  0  0  0  0  0  0  0
  1  7  1  0  0  0  0
  2  9  1  0  0  0  0
  2  3  2  0  0  0  0
  3  4  1  0  0  0  0
  3  1  1  0  0  0  0
  4  5  2  0  0  0  0
  5 15  1  0  0  0  0
  5  6  1  0  0  0  0
  6 16  1  0  0  0  0
  7  6  2  0  0  0  0
  7  8  1  0  0  0  0
  8 12  2  0  0  0  0
 10  2  1  0  0  0  0
 11  8  1  0  0  0  0
 13 10  1  0  0  0  0
 14  4  1  0  0  0  0
M  CHG  2   9  -1  11  -1
M  END
