1,3,30
q = -2.0, confidence = 0.954

 30 31  0  0  1  0  0  0  0  0999 V2000
    0.7417   -2.0674   -0.3367 O   0  5  0  0  0  0  0  0  0  0  0  0
   -3.9880    0.3488    1.6836 O   0  5  0  0  0  0  0  0  0  0  0  0
   -2.8165   -1.1456    0.4552 O   0  0  0  0  0  0  0  0  0  0  0  0
    0.6056    0.4054    1.1872 C   0  0  0  0  0  3  0  0  0  0  0  0
    0.7024    1.3520    1.7665 H   0  0  0  0  0  0  0  0  0  0  0  0
    1.8354   -0.2773    0.8696 C   0  0  0  0  0  0  0  0  0  0  0  0
    3.0658    0.2783    1.3003 C   0  0  0  0  0  0  0  0  0  0  0  0
    3.0330    1.2109    1.8891 H   0  0  0  0  0  0  0  0  0  0  0  0
    4.2881   -0.3168    0.9898 C   0  0  0  0  0  0  0  0  0  0  0  0
    5.2344    0.1297    1.3303 H   0  0  0  0  0  0  0  0  0  0  0  0
    4.2859   -1.5101    0.2283 C   0  0  0  0  0  0  0  0  0  0  0  0
    5.2428   -1.9963   -0.0247 H   0  0  0  0  0  0  0  0  0  0  0  0
    3.0946   -2.0823   -0.2101 C   0  0  0  0  0  0  0  0  0  0  0  0
    3.0829   -3.0086   -0.8036 H   0  0  0  0  0  0  0  0  0  0  0  0
    1.8212   -1.4931    0.0872 C   0  0  0  0  0  0  0  0  0  0  0  0
   -1.7109    0.8706    1.0557 C   0  0  2  0  0  0  0  0  0  0  0  0
   -1.6029    1.4607    1.9932 H   0  0  0  0  0  0  0  0  0  0  0  0
   -2.9664   -0.0259    1.1147 C   0  0  0  0  0  0  0  0  0  0  0  0
   -1.9065    1.8678   -0.1432 C   0  0  0  0  0  0  0  0  0  0  0  0
   -2.3061    1.2837   -0.9950 H   0  0  0  0  0  0  0  0  0  0  0  0
   -2.6612    2.6130    0.1748 H   0  0  0  0  0  0  0  0  0  0  0  0
   -0.6304    2.5159   -0.5650 C   0  0  0  0  0  0  0  0  0  0  0  0
    0.2626    1.9926   -1.4947 C   0  0  0  0  0  0  0  0  0  0  0  0
    0.1867    1.0820   -2.1026 H   0  0  0  0  0  0  0  0  0  0  0  0
    1.1062    3.7973   -0.5144 C   0  0  0  0  0  0  0  0  0  0  0  0
    1.8258    4.5961   -0.2889 H   0  0  0  0  0  0  0  0  0  0  0  0
    1.3610    2.8256   -1.4526 N   0  0  0  0  0  0  0  0  0  0  0  0
   -0.0866    3.6378    0.0401 N   0  0  0  0  0  0  0  0  0  0  0  0
    2.2232    2.6990   -1.9822 H   0  0  0  0  0  0  0  0  0  0  0  0
   -0.5739    0.0136    0.8153 N   0  0  0  0  0  2  0  0  0  0  0  0
  1 15  1  0  0  0  0
  3 18  2  0  0  0  0
  4  5  1  0  0  0  0
  6  4  1  0  0  0  0
  6  7  1  0  0  0  0
  7  8  1  0  0  0  0
  9  7  2  0  0  0  0
  9 10  1  0  0  0  0
 11  9  1  0  0  0  0
 12 11  1  0  0  0  0
 13 15  1  0  0  0  0
 13 11  2  0  0  0  0
 14 13  1  0  0  0  0
 15  6  2  0  0  0  0
 16 18  1  0  0  0  0
 16 17  1  1  0  0  0
 18  2  1  0  0  0  0
 19 21  1  0  0  0  0
 19 16  1  0  0  0  0
 20 19  1  0  0  0  0
 22 19  1  0  0  0  0
 22 28  1  0  0  0  0
 23 27  1  0  0  0  0
 23 22  2  0  0  0  0
 24 23  1  0  0  0  0
 25 26  1  0  0  0  0
 25 28  2  0  0  0  0
 27 25  1  0  0  0  0
 29 27  1  0  0  0  0
 30 16  1  0  0  0  0
 30  4  1  0  0  0  0
M  CHG  2   1  -1   2  -1
M  END
