1,2,7
q = nan, confidence = 0.0

 59 63  0  0  1  0  0  0  0  0999 V2000
   -2.3451    2.9567   -0.2553 O   0  5  0  0  0  0  0  0  0  0  0  0
    0.9148    1.6638    0.4279 O   0  0  0  0  0  1  0  0  0  0  0  0
   -0.6710   -2.0454   -0.6574 O   0  0  0  0  0  0  0  0  0  0  0  0
    3.3515   -0.0680    0.0214 O   0  0  0  0  0  0  0  0  0  0  0  0
    0.7749   -2.4312    1.1602 O   0  0  0  0  0  0  0  0  0  0  0  0
    4.3281   -2.1797    0.3551 O   0  0  0  0  0  0  0  0  0  0  0  0
   -1.3761    0.5999    0.5327 N   0  0  0  0  0  2  0  0  0  0  0  0
   -0.4165   -1.8014    0.7009 C   0  0  1  0  0  0  0  0  0  0  0  0
   -1.2157   -2.2328    1.3470 H   0  0  0  0  0  0  0  0  0  0  0  0
   -0.2827   -0.2867    0.9015 C   0  0  1  0  0  0  0  0  0  0  0  0
   -0.0941   -0.1345    1.9888 H   0  0  0  0  0  0  0  0  0  0  0  0
    0.9424    0.2936    0.1719 C   0  0  2  0  0  0  0  0  0  0  0  0
    0.8547    0.0839   -0.9213 H   0  0  0  0  0  0  0  0  0  0  0  0
    2.1644   -0.4410    0.6996 C   0  0  1  0  0  0  0  0  0  0  0  0
    2.2656   -0.2282    1.7941 H   0  0  0  0  0  0  0  0  0  0  0  0
    1.9449   -1.9544    0.4931 C   0  0  1  0  0  0  0  0  0  0  0  0
    1.8634   -2.1282   -0.6030 H   0  0  0  0  0  0  0  0  0  0  0  0
    3.1770   -2.6945    1.0095 C   0  0  0  0  0  0  0  0  0  0  0  0
    3.2462   -2.5664    2.1183 H   0  0  0  0  0  0  0  0  0  0  0  0
    3.1230   -3.7776    0.7846 H   0  0  0  0  0  0  0  0  0  0  0  0
   -1.1088   -3.3869   -0.9432 C   0  0  0  0  0  0  0  0  0  0  0  0
   -0.5096   -4.1128   -0.3529 H   0  0  0  0  0  0  0  0  0  0  0  0
   -0.8832   -3.5424   -2.0165 H   0  0  0  0  0  0  0  0  0  0  0  0
   -2.5868   -3.5513   -0.6759 C   0  0  0  0  0  0  0  0  0  0  0  0
   -3.5266   -2.9817   -1.5603 C   0  0  0  0  0  0  0  0  0  0  0  0
   -3.1717   -2.4631   -2.4647 H   0  0  0  0  0  0  0  0  0  0  0  0
   -4.8998   -3.0643   -1.2935 C   0  0  0  0  0  0  0  0  0  0  0  0
   -5.6218   -2.6192   -1.9948 H   0  0  0  0  0  0  0  0  0  0  0  0
   -5.3534   -3.7101   -0.1298 C   0  0  0  0  0  0  0  0  0  0  0  0
   -6.4317   -3.7747    0.0808 H   0  0  0  0  0  0  0  0  0  0  0  0
   -4.4279   -4.2776    0.7593 C   0  0  0  0  0  0  0  0  0  0  0  0
   -4.7778   -4.7875    1.6695 H   0  0  0  0  0  0  0  0  0  0  0  0
   -3.0524   -4.2002    0.4849 C   0  0  0  0  0  0  0  0  0  0  0  0
   -2.3274   -4.6578    1.1771 H   0  0  0  0  0  0  0  0  0  0  0  0
   -2.5839    0.1571    0.3333 C   0  0  0  0  0  3  0  0  0  0  0  0
   -2.7975   -0.9248    0.4401 H   0  0  0  0  0  0  0  0  0  0  0  0
   -3.7021    0.9808   -0.0362 C   0  0  0  0  0  0  0  0  0  0  0  0
   -4.9928    0.4004   -0.1464 C   0  0  0  0  0  0  0  0  0  0  0  0
   -5.1042   -0.6726    0.0755 H   0  0  0  0  0  0  0  0  0  0  0  0
   -6.0924    1.1641   -0.5260 C   0  0  0  0  0  0  0  0  0  0  0  0
   -7.0901    0.7084   -0.6017 H   0  0  0  0  0  0  0  0  0  0  0  0
   -5.9091    2.5365   -0.8154 C   0  0  0  0  0  0  0  0  0  0  0  0
   -6.7727    3.1487   -1.1193 H   0  0  0  0  0  0  0  0  0  0  0  0
   -4.6528    3.1330   -0.7223 C   0  0  0  0  0  0  0  0  0  0  0  0
   -4.5020    4.1986   -0.9470 H   0  0  0  0  0  0  0  0  0  0  0  0
   -3.5173    2.3744   -0.3246 C   0  0  0  0  0  0  0  0  0  0  0  0
    4.4607   -0.7810    0.5389 C   0  0  1  0  0  0  0  0  0  0  0  0
    4.5089   -0.5812    1.6466 H   0  0  0  0  0  0  0  0  0  0  0  0
    5.7216   -0.2990   -0.1400 C   0  0  0  0  0  0  0  0  0  0  0  0
    6.8234   -1.1602   -0.2885 C   0  0  0  0  0  0  0  0  0  0  0  0
    6.7392   -2.2004    0.0563 H   0  0  0  0  0  0  0  0  0  0  0  0
    8.0051   -0.6933   -0.8829 C   0  0  0  0  0  0  0  0  0  0  0  0
    8.8630   -1.3731   -0.9997 H   0  0  0  0  0  0  0  0  0  0  0  0
    8.0930    0.6340   -1.3319 C   0  0  0  0  0  0  0  0  0  0  0  0
    9.0209    0.9991   -1.7982 H   0  0  0  0  0  0  0  0  0  0  0  0
    6.9918    1.4930   -1.1870 C   0  0  0  0  0  0  0  0  0  0  0  0
    7.0524    2.5328   -1.5430 H   0  0  0  0  0  0  0  0  0  0  0  0
    5.8084    1.0302   -0.5933 C   0  0  0  0  0  0  0  0  0  0  0  0
    4.9353    1.6894   -0.4849 H   0  0  0  0  0  0  0  0  0  0  0  0
  3  8  1  0  0  0  0
  4 47  1  0  0  0  0
  4 14  1  0  0  0  0
  6 47  1  0  0  0  0
  6 18  1  0  0  0  0
  7 10  1  0  0  0  0
  8 10  1  0  0  0  0
  8  5  1  0  0  0  0
  8  9  1  1  0  0  0
 10 11  1  1  0  0  0
 12 13  1  6  0  0  0
 12  2  1  0  0  0  0
 12 14  1  0  0  0  0
 12 10  1  0  0  0  0
 14 15  1  1  0  0  0
 16 17  1  6  0  0  0
 16 14  1  0  0  0  0
 16 18  1  0  0  0  0
 16  5  1  0  0  0  0
 18 19  1  0  0  0  0
 20 18  1  0  0  0  0
 21 24  1  0  0  0  0
 21  3  1  0  0  0  0
 21 22  1  0  0  0  0
 23 21  1  0  0  0  0
 24 33  1  0  0  0  0
 25 27  1  0  0  0  0
 25 24  2  0  0  0  0
 26 25  1  0  0  0  0
 27 29  2  0  0  0  0
 28 27  1  0  0  0  0
 29 30  1  0  0  0  0
 29 31  1  0  0  0  0
 31 32  1  0  0  0  0
 33 31  2  0  0  0  0
 33 34  1  0  0  0  0
 35 36  1  0  0  0  0
 35  7  1  0  0  0  0
 37 35  1  0  0  0  0
 38 37  1  0  0  0  0
 38 39  1  0  0  0  0
 40 38  2  0  0  0  0
 41 40  1  0  0  0  0
 42 44  2  0  0  0  0
 42 40  1  0  0  0  0
 43 42  1  0  0  0  0
 44 46  1  0  0  0  0
 45 44  1  0  0  0  0
 46  1  1  0  0  0  0
 46 37  2  0  0  0  0
 47 48  1  1  0  0  0
 49 47  1  0  0  0  0
 50 49  1  0  0  0  0
 50 51  1  0  0  0  0
 52 50  2  0  0  0  0
 53 52  1  0  0  0  0
 54 56  2  0  0  0  0
 54 52  1  0  0  0  0
 55 54  1  0  0  0  0
 56 58  1  0  0  0  0
 57 56  1  0  0  0  0
 58 59  1  0  0  0  0
 58 49  2  0  0  0  0
M  CHG  1   1  -1
M  END
