1,3,4
q = -2.0, confidence = 0.972

 32 32  0  0  1  0  0  0  0  0999 V2000
    1.5491    1.6875    1.0160 O   0  5  0  0  0  0  0  0  0  0  0  0
    3.1444    0.5404    2.1253 O   0  0  0  0  0  0  0  0  0  0  0  0
   -1.8357    1.1281   -0.5970 O   0  5  0  0  0  0  0  0  0  0  0  0
    0.1285   -0.3591    0.5261 N   0  0  0  0  0  2  0  0  0  0  0  0
    2.1475    0.5982    1.4038 C   0  0  0  0  0  0  0  0  0  0  0  0
    1.5067   -0.6854    0.8152 C   0  0  2  0  0  0  0  0  0  0  0  0
    1.5865   -1.5226    1.5499 H   0  0  0  0  0  0  0  0  0  0  0  0
   -0.8192   -1.2014    0.8008 C   0  0  0  0  0  3  0  0  0  0  0  0
   -0.5557   -2.1631    1.3014 H   0  0  0  0  0  0  0  0  0  0  0  0
   -2.2077   -1.0107    0.4691 C   0  0  0  0  0  0  0  0  0  0  0  0
   -2.6273    0.1622   -0.2695 C   0  0  0  0  0  0  0  0  0  0  0  0
   -4.0117    0.2249   -0.6435 C   0  0  0  0  0  0  0  0  0  0  0  0
   -4.3285    1.1105   -1.2142 H   0  0  0  0  0  0  0  0  0  0  0  0
   -4.9110   -0.7750   -0.2871 C   0  0  0  0  0  0  0  0  0  0  0  0
   -5.9682   -0.6806   -0.5861 H   0  0  0  0  0  0  0  0  0  0  0  0
   -4.4933   -1.9084    0.4528 C   0  0  0  0  0  0  0  0  0  0  0  0
   -5.2127   -2.6936    0.7298 H   0  0  0  0  0  0  0  0  0  0  0  0
   -3.1518   -2.0106    0.8144 C   0  0  0  0  0  0  0  0  0  0  0  0
   -2.7930   -2.8896    1.3771 H   0  0  0  0  0  0  0  0  0  0  0  0
    2.2833   -1.0894   -0.4816 C   0  0  1  0  0  0  0  0  0  0  0  0
    2.4097   -0.1529   -1.0694 H   0  0  0  0  0  0  0  0  0  0  0  0
    3.6684   -1.6445   -0.1024 C   0  0  0  0  0  0  0  0  0  0  0  0
    3.5388   -2.6700    0.3157 H   0  0  0  0  0  0  0  0  0  0  0  0
    4.0773   -1.0264    0.7234 H   0  0  0  0  0  0  0  0  0  0  0  0
    4.6627   -1.6771   -1.2641 C   0  0  0  0  0  0  0  0  0  0  0  0
    4.8295   -0.6566   -1.6678 H   0  0  0  0  0  0  0  0  0  0  0  0
    4.3090   -2.3090   -2.1060 H   0  0  0  0  0  0  0  0  0  0  0  0
    5.6477   -2.0757   -0.9437 H   0  0  0  0  0  0  0  0  0  0  0  0
    1.4733   -2.0604   -1.3445 C   0  0  0  0  0  0  0  0  0  0  0  0
    2.0643   -2.3938   -2.2218 H   0  0  0  0  0  0  0  0  0  0  0  0
    0.5537   -1.5775   -1.7267 H   0  0  0  0  0  0  0  0  0  0  0  0
    1.1814   -2.9679   -0.7710 H   0  0  0  0  0  0  0  0  0  0  0  0
  1  5  1  0  0  0  0
  3 11  1  0  0  0  0
  4  8  1  0  0  0  0
  4  6  1  0  0  0  0
  5  2  2  0  0  0  0
  6  5  1  0  0  0  0
  6  7  1  1  0  0  0
  8  9  1  0  0  0  0
 10  8  1  0  0  0  0
 10 18  1  0  0  0  0
 11 10  2  0  0  0  0
 12 14  2  0  0  0  0
 12 11  1  0  0  0  0
 13 12  1  0  0  0  0
 14 16  1  0  0  0  0
 15 14  1  0  0  0  0
 16 17  1  0  0  0  0
 16 18  2  0  0  0  0
 18 19  1  0  0  0  0
 20 21  1  6  0  0  0
 20 22  1  0  0  0  0
 20  6  1  0  0  0  0
 22 23  1  0  0  0  0
 22 24  1  0  0  0  0
 25 28  1  0  0  0  0
 25 22  1  0  0  0  0
 26 25  1  0  0  0  0
 27 25  1  0  0  0  0
 29 32  1  0  0  0  0
 29 20  1  0  0  0  0
 30 29  1  0  0  0  0
 31 29  1  0  0  0  0
M  CHG  2   1  -1   3  -1
M  END
