3,5,6
q = -2.0, confidence = 0.872

 33 34  0  0  0  0  0  0  0  0999 V2000
    4.8622    1.2619   -0.3984 Br  0  0  0  0  0  0  0  0  0  0  0  0
    5.8812   -4.1139    0.6834 Cl  0  0  0  0  0  0  0  0  0  0  0  0
    0.0404   -1.5511   -0.0653 N   0  0  0  0  0  2  0  0  0  0  0  0
   -1.2328   -1.9782    0.1200 N   0  0  0  0  0  0  0  0  0  0  0  0
    2.0082    0.2213   -0.2833 O   0  5  0  0  0  0  0  0  0  0  0  0
   -1.6413    0.1351   -0.6701 O   0  5  0  0  0  0  0  0  0  0  0  0
   -6.6894    0.5761   -0.8447 O   0  0  0  0  0  0  0  0  0  0  0  0
   -6.1860    1.3444   -1.1723 H   0  0  0  0  0  0  0  0  0  0  0  0
   -7.6777   -1.6805    0.0630 O   0  0  0  0  0  0  0  0  0  0  0  0
    2.4146   -2.0929    0.1642 C   0  0  0  0  0  0  0  0  0  0  0  0
    2.8627   -0.7558   -0.0881 C   0  0  0  0  0  0  0  0  0  0  0  0
    4.2625   -0.5083   -0.0827 C   0  0  0  0  0  0  0  0  0  0  0  0
    5.1859   -1.5316    0.1504 C   0  0  0  0  0  0  0  0  0  0  0  0
    6.2626   -1.3173    0.1443 H   0  0  0  0  0  0  0  0  0  0  0  0
    4.7224   -2.8405    0.3938 C   0  0  0  0  0  0  0  0  0  0  0  0
    3.3567   -3.1227    0.4081 C   0  0  0  0  0  0  0  0  0  0  0  0
    3.0079   -4.1460    0.6058 H   0  0  0  0  0  0  0  0  0  0  0  0
    1.0082   -2.3895    0.2315 C   0  0  0  0  0  3  0  0  0  0  0  0
    0.6942   -3.3933    0.5705 H   0  0  0  0  0  0  0  0  0  0  0  0
   -2.0781   -1.0212   -0.2334 C   0  0  0  0  0  0  0  0  0  0  0  0
   -3.5274   -1.2368   -0.1403 C   0  0  0  0  0  0  0  0  0  0  0  0
   -4.4099   -0.2073   -0.5423 C   0  0  0  0  0  0  0  0  0  0  0  0
   -3.9843    0.7354   -0.9208 H   0  0  0  0  0  0  0  0  0  0  0  0
   -5.7935   -0.3752   -0.4690 C   0  0  0  0  0  0  0  0  0  0  0  0
   -6.3256   -1.6056    0.0244 C   0  0  0  0  0  0  0  0  0  0  0  0
   -5.4424   -2.6272    0.4242 C   0  0  0  0  0  0  0  0  0  0  0  0
   -5.8409   -3.5772    0.8038 H   0  0  0  0  0  0  0  0  0  0  0  0
   -4.0554   -2.4490    0.3429 C   0  0  0  0  0  0  0  0  0  0  0  0
   -3.3643   -3.2440    0.6535 H   0  0  0  0  0  0  0  0  0  0  0  0
   -8.2704   -2.8754    0.5361 C   0  0  0  0  0  0  0  0  0  0  0  0
   -7.9936   -3.7514   -0.0924 H   0  0  0  0  0  0  0  0  0  0  0  0
   -9.3641   -2.7236    0.4817 H   0  0  0  0  0  0  0  0  0  0  0  0
   -7.9856   -3.0892    1.5907 H   0  0  0  0  0  0  0  0  0  0  0  0
  1 12  1  0  0  0  0
  3  4  1  0  0  0  0
  3 18  1  0  0  0  0
  5 11  1  0  0  0  0
  6 20  1  0  0  0  0
  7 24  1  0  0  0  0
  8  7  1  0  0  0  0
  9 30  1  0  0  0  0
 10 18  1  0  0  0  0
 10 16  1  0  0  0  0
 11 12  1  0  0  0  0
 11 10  2  0  0  0  0
 12 13  2  0  0  0  0
 13 15  1  0  0  0  0
 14 13  1  0  0  0  0
 15 16  2  0  0  0  0
 15  2  1  0  0  0  0
 16 17  1  0  0  0  0
 18 19  1  0  0  0  0
 20 21  1  0  0  0  0
 20  4  2  0  0  0  0
 21 28  1  0  0  0  0
 22 24  1  0  0  0  0
 22 21  2  0  0  0  0
 23 22  1  0  0  0  0
 24 25  2  0  0  0  0
 25  9  1  0  0  0  0
 25 26  1  0  0  0  0
 26 27  1  0  0  0  0
 28 26  2  0  0  0  0
 28 29  1  0  0  0  0
 30 33  1  0  0  0  0
 31 30  1  0  0  0  0
 32 30  1  0  0  0  0
M  CHG  2   5  -1   6  -1
M  END
