2,4,5
q = -2.0, confidence = 0.934

 31 32  0  0  0  0  0  0  0  0999 V2000
    7.0020   -0.4366   -0.9531 Br  0  0  0  0  0  0  0  0  0  0  0  0
    0.5532   -1.2225   -0.0190 N   0  0  0  0  0  2  0  0  0  0  0  0
   -0.4003   -2.0436   -0.5327 N   0  0  0  0  0  0  0  0  0  0  0  0
    1.5033    0.9956    1.1194 O   0  5  0  0  0  0  0  0  0  0  0  0
   -1.6574   -0.9066    1.0119 O   0  5  0  0  0  0  0  0  0  0  0  0
    2.8873   -0.5149   -0.1220 C   0  0  0  0  0  0  0  0  0  0  0  0
    2.6997    0.6565    0.6842 C   0  0  0  0  0  0  0  0  0  0  0  0
    3.8183    1.4755    0.9721 C   0  0  0  0  0  0  0  0  0  0  0  0
    3.6585    2.3731    1.5858 H   0  0  0  0  0  0  0  0  0  0  0  0
    5.0872    1.1493    0.4913 C   0  0  0  0  0  0  0  0  0  0  0  0
    5.9498    1.7887    0.7273 H   0  0  0  0  0  0  0  0  0  0  0  0
    5.2655   -0.0045   -0.3022 C   0  0  0  0  0  0  0  0  0  0  0  0
    4.1822   -0.8236   -0.6135 C   0  0  0  0  0  0  0  0  0  0  0  0
    4.3226   -1.7179   -1.2379 H   0  0  0  0  0  0  0  0  0  0  0  0
    1.7731   -1.3412   -0.4949 C   0  0  0  0  0  3  0  0  0  0  0  0
    1.9252   -2.1362   -1.2475 H   0  0  0  0  0  0  0  0  0  0  0  0
   -1.5523   -1.8161    0.0770 C   0  0  0  0  0  0  0  0  0  0  0  0
   -2.7531   -2.5881   -0.2990 C   0  0  0  0  0  0  0  0  0  0  0  0
   -3.9763   -2.3292    0.3545 C   0  0  0  0  0  0  0  0  0  0  0  0
   -3.9956   -1.5552    1.1361 H   0  0  0  0  0  0  0  0  0  0  0  0
   -5.1433   -3.0377    0.0227 C   0  0  0  0  0  0  0  0  0  0  0  0
   -5.0616   -4.0191   -0.9887 C   0  0  0  0  0  0  0  0  0  0  0  0
   -5.9657   -4.5852   -1.2654 H   0  0  0  0  0  0  0  0  0  0  0  0
   -3.8490   -4.2837   -1.6447 C   0  0  0  0  0  0  0  0  0  0  0  0
   -3.8090   -5.0539   -2.4300 H   0  0  0  0  0  0  0  0  0  0  0  0
   -2.6913   -3.5741   -1.3060 C   0  0  0  0  0  0  0  0  0  0  0  0
   -1.7310   -3.7629   -1.8055 H   0  0  0  0  0  0  0  0  0  0  0  0
   -6.4487   -2.7689    0.7295 C   0  0  0  0  0  0  0  0  0  0  0  0
   -6.3636   -1.9181    1.4324 H   0  0  0  0  0  0  0  0  0  0  0  0
   -6.7796   -3.6549    1.3113 H   0  0  0  0  0  0  0  0  0  0  0  0
   -7.2598   -2.5383    0.0082 H   0  0  0  0  0  0  0  0  0  0  0  0
  1 12  1  0  0  0  0
  3  2  1  0  0  0  0
  3 17  2  0  0  0  0
  6  7  1  0  0  0  0
  7  8  2  0  0  0  0
  7  4  1  0  0  0  0
  8  9  1  0  0  0  0
 10 11  1  0  0  0  0
 10  8  1  0  0  0  0
 12 10  2  0  0  0  0
 13 12  1  0  0  0  0
 13  6  2  0  0  0  0
 14 13  1  0  0  0  0
 15  6  1  0  0  0  0
 15  2  1  0  0  0  0
 16 15  1  0  0  0  0
 17  5  1  0  0  0  0
 18 17  1  0  0  0  0
 18 19  1  0  0  0  0
 19 20  1  0  0  0  0
 21 19  2  0  0  0  0
 21 28  1  0  0  0  0
 22 21  1  0  0  0  0
 23 22  1  0  0  0  0
 24 26  1  0  0  0  0
 24 22  2  0  0  0  0
 25 24  1  0  0  0  0
 26 18  2  0  0  0  0
 27 26  1  0  0  0  0
 28 30  1  0  0  0  0
 28 29  1  0  0  0  0
 31 28  1  0  0  0  0
M  CHG  2   4  -1   5  -1
M  END
