1,4,5
q = -2.0, confidence = 0.804

 33 34  0  0  0  0  0  0  0  0999 V2000
    0.0126    0.6698   -0.0325 N   0  0  0  0  0  2  0  0  0  0  0  0
   -1.1207    1.4219    0.0498 N   0  0  0  0  0  0  0  0  0  0  0  0
    6.0654    1.7533   -0.0019 N   0  0  0  0  0  0  0  0  0  0  0  0
    1.5742   -1.5981    0.0899 O   0  5  0  0  0  0  0  0  0  0  0  0
   -2.0946   -0.6377   -0.3114 O   0  5  0  0  0  0  0  0  0  0  0  0
    5.8789    2.9713   -0.0126 O   0  0  0  0  0  0  0  0  0  0  0  0
    7.1674    1.2033    0.0003 O   0  0  0  0  0  0  0  0  0  0  0  0
    2.6092   -0.7748    0.0410 C   0  0  0  0  0  0  0  0  0  0  0  0
    3.9118   -1.3327    0.0485 C   0  0  0  0  0  0  0  0  0  0  0  0
    3.9979   -2.4279    0.0691 H   0  0  0  0  0  0  0  0  0  0  0  0
    5.0390   -0.5156    0.0298 C   0  0  0  0  0  0  0  0  0  0  0  0
    6.0571   -0.9275    0.0316 H   0  0  0  0  0  0  0  0  0  0  0  0
    4.8732    0.8821    0.0112 C   0  0  0  0  0  0  0  0  0  0  0  0
    3.6086    1.4657    0.0093 C   0  0  0  0  0  0  0  0  0  0  0  0
    3.5322    2.5620   -0.0026 H   0  0  0  0  0  0  0  0  0  0  0  0
    2.4515    0.6544    0.0176 C   0  0  0  0  0  0  0  0  0  0  0  0
    1.1612    1.2998    0.0379 C   0  0  0  0  0  3  0  0  0  0  0  0
    1.1261    2.4028    0.1177 H   0  0  0  0  0  0  0  0  0  0  0  0
   -2.1952    0.6640   -0.1280 C   0  0  0  0  0  0  0  0  0  0  0  0
   -3.5372    1.2800   -0.0951 C   0  0  0  0  0  0  0  0  0  0  0  0
   -3.6021    2.6752    0.1460 C   0  0  0  0  0  0  0  0  0  0  0  0
   -2.6551    3.2146    0.2836 H   0  0  0  0  0  0  0  0  0  0  0  0
   -4.8245    3.3446    0.2061 C   0  0  0  0  0  0  0  0  0  0  0  0
   -4.8518    4.4281    0.3945 H   0  0  0  0  0  0  0  0  0  0  0  0
   -6.0132    2.6205    0.0203 C   0  0  0  0  0  0  0  0  0  0  0  0
   -6.9878    3.1302    0.0621 H   0  0  0  0  0  0  0  0  0  0  0  0
   -5.9582    1.2427   -0.2238 C   0  0  0  0  0  0  0  0  0  0  0  0
   -6.8943    0.6827   -0.3739 H   0  0  0  0  0  0  0  0  0  0  0  0
   -4.7400    0.5343   -0.2901 C   0  0  0  0  0  0  0  0  0  0  0  0
   -4.7881   -0.9468   -0.5686 C   0  0  0  0  0  0  0  0  0  0  0  0
   -5.8362   -1.2762   -0.7022 H   0  0  0  0  0  0  0  0  0  0  0  0
   -4.3346   -1.5387    0.2509 H   0  0  0  0  0  0  0  0  0  0  0  0
   -4.2140   -1.2132   -1.4774 H   0  0  0  0  0  0  0  0  0  0  0  0
  1 17  1  0  0  0  0
  1  2  1  0  0  0  0
  3  7  2  0  0  0  0
  3 13  1  0  0  0  0
  5 19  1  0  0  0  0
  6  3  2  0  0  0  0
  8  9  1  0  0  0  0
  8  4  1  0  0  0  0
  9 10  1  0  0  0  0
 11 12  1  0  0  0  0
 11  9  2  0  0  0  0
 13 11  1  0  0  0  0
 14 13  2  0  0  0  0
 14 16  1  0  0  0  0
 15 14  1  0  0  0  0
 16 17  1  0  0  0  0
 16  8  2  0  0  0  0
 17 18  1  0  0  0  0
 19 20  1  0  0  0  0
 19  2  2  0  0  0  0
 20 21  1  0  0  0  0
 21 23  2  0  0  0  0
 21 22  1  0  0  0  0
 23 24  1  0  0  0  0
 25 26  1  0  0  0  0
 25 23  1  0  0  0  0
 27 25  2  0  0  0  0
 28 27  1  0  0  0  0
 29 27  1  0  0  0  0
 29 20  2  0  0  0  0
 30 29  1  0  0  0  0
 30 32  1  0  0  0  0
 31 30  1  0  0  0  0
 33 30  1  0  0  0  0
M  CHG  2   4  -1   5  -1
M  END
