3,4,5
q = -2.0, confidence = 0.864

 41 42  0  0  1  0  0  0  0  0999 V2000
    4.6231   -1.3544   -0.8078 Br  0  0  0  0  0  0  0  0  0  0  0  0
   -1.7289    3.7208   -0.5219 Br  0  0  0  0  0  0  0  0  0  0  0  0
   -0.8389   -1.5262    0.4588 N   0  0  0  0  0  2  0  0  0  0  0  0
    1.5926   -1.3316   -0.6828 O   0  5  0  0  0  0  0  0  0  0  0  0
   -1.5037    0.6705   -0.9094 O   0  5  0  0  0  0  0  0  0  0  0  0
   -2.2331   -4.1627   -0.0537 O   0  0  0  0  0  0  0  0  0  0  0  0
   -4.9825   -2.3736    0.7272 O   0  0  0  0  0  0  0  0  0  0  0  0
    1.2377   -2.4136    1.4168 C   0  0  0  0  0  0  0  0  0  0  0  0
    2.0825   -1.9029    0.3781 C   0  0  0  0  0  0  0  0  0  0  0  0
    3.4922   -2.0738    0.5302 C   0  0  0  0  0  0  0  0  0  0  0  0
    4.0227   -2.7352    1.6391 C   0  0  0  0  0  0  0  0  0  0  0  0
    5.1141   -2.8422    1.7223 H   0  0  0  0  0  0  0  0  0  0  0  0
    3.1746   -3.2591    2.6395 C   0  0  0  0  0  0  0  0  0  0  0  0
    3.6094   -3.7846    3.5014 H   0  0  0  0  0  0  0  0  0  0  0  0
    1.7964   -3.1016    2.5241 C   0  0  0  0  0  0  0  0  0  0  0  0
    1.1196   -3.5017    3.2950 H   0  0  0  0  0  0  0  0  0  0  0  0
   -0.1882   -2.2487    1.3286 C   0  0  0  0  0  3  0  0  0  0  0  0
   -0.7849   -2.7802    2.0970 H   0  0  0  0  0  0  0  0  0  0  0  0
   -2.3080   -1.4652    0.6295 C   0  0  2  0  0  0  0  0  0  0  0  0
   -2.6058   -2.1601    1.4404 H   0  0  0  0  0  0  0  0  0  0  0  0
   -3.0369   -1.9719   -0.6342 C   0  0  0  0  0  0  0  0  0  0  0  0
   -2.8260   -1.3230   -1.5048 H   0  0  0  0  0  0  0  0  0  0  0  0
   -2.5905   -3.4185   -0.9521 C   0  0  0  0  0  0  0  0  0  0  0  0
   -2.6002   -3.8164   -2.4055 C   0  0  0  0  0  0  0  0  0  0  0  0
   -2.4026   -4.8982   -2.5098 H   0  0  0  0  0  0  0  0  0  0  0  0
   -1.8072   -3.2304   -2.9183 H   0  0  0  0  0  0  0  0  0  0  0  0
   -3.5606   -3.5490   -2.8918 H   0  0  0  0  0  0  0  0  0  0  0  0
   -4.5560   -1.9797   -0.3453 C   0  0  0  0  0  0  0  0  0  0  0  0
   -5.4456   -1.4429   -1.4407 C   0  0  0  0  0  0  0  0  0  0  0  0
   -6.5086   -1.6189   -1.1962 H   0  0  0  0  0  0  0  0  0  0  0  0
   -5.1915   -1.8854   -2.4252 H   0  0  0  0  0  0  0  0  0  0  0  0
   -5.2605   -0.3508   -1.5326 H   0  0  0  0  0  0  0  0  0  0  0  0
   -2.6903   -0.0526    1.0125 C   0  0  0  0  0  0  0  0  0  0  0  0
   -2.1955    0.9853    0.1792 C   0  0  0  0  0  0  0  0  0  0  0  0
   -2.4624    2.3295    0.5421 C   0  0  0  0  0  0  0  0  0  0  0  0
   -3.2364    2.6269    1.6729 C   0  0  0  0  0  0  0  0  0  0  0  0
   -3.4341    3.6784    1.9254 H   0  0  0  0  0  0  0  0  0  0  0  0
   -3.7408    1.5876    2.4711 C   0  0  0  0  0  0  0  0  0  0  0  0
   -4.3515    1.8264    3.3539 H   0  0  0  0  0  0  0  0  0  0  0  0
   -3.4593    0.2509    2.1455 C   0  0  0  0  0  0  0  0  0  0  0  0
   -3.8491   -0.5720    2.7632 H   0  0  0  0  0  0  0  0  0  0  0  0
  1 10  1  0  0  0  0
  2 35  1  0  0  0  0
  3 19  1  0  0  0  0
  3 17  1  0  0  0  0
  4  9  1  0  0  0  0
  5 34  1  0  0  0  0
  8 15  1  0  0  0  0
  9 10  1  0  0  0  0
  9  8  2  0  0  0  0
 10 11  2  0  0  0  0
 11 12  1  0  0  0  0
 11 13  1  0  0  0  0
 13 14  1  0  0  0  0
 15 13  2  0  0  0  0
 15 16  1  0  0  0  0
 17  8  1  0  0  0  0
 17 18  1  0  0  0  0
 19 33  1  0  0  0  0
 19 20  1  1  0  0  0
 21 28  1  0  0  0  0
 21 19  1  0  0  0  0
 22 21  1  0  0  0  0
 23 21  1  0  0  0  0
 23  6  2  0  0  0  0
 24 23  1  0  0  0  0
 25 24  1  0  0  0  0
 26 24  1  0  0  0  0
 27 24  1  0  0  0  0
 28  7  2  0  0  0  0
 29 30  1  0  0  0  0
 29 28  1  0  0  0  0
 31 29  1  0  0  0  0
 32 29  1  0  0  0  0
 33 40  1  0  0  0  0
 34 35  1  0  0  0  0
 34 33  2  0  0  0  0
 35 36  2  0  0  0  0
 36 37  1  0  0  0  0
 36 38  1  0  0  0  0
 38 39  1  0  0  0  0
 40 38  2  0  0  0  0
 40 41  1  0  0  0  0
M  CHG  2   4  -1   5  -1
M  END
