1,2,16
q = -2.0, confidence = 0.742

 32 33  0  0  1  0  0  0  0  0999 V2000
   -0.4110    2.0830   -0.8372 N   0  0  0  0  0  2  0  0  0  0  0  0
    0.8743   -0.7170   -1.0945 O   0  5  0  0  0  0  0  0  0  0  0  0
   -1.6632    4.3038   -0.9886 C   0  0  0  0  0  0  0  0  0  0  0  0
   -0.9669    4.7613   -1.6990 H   0  0  0  0  0  0  0  0  0  0  0  0
    0.8581    2.4088   -1.1696 C   0  0  2  0  0  3  0  0  0  0  0  0
    1.8650    0.0391   -1.4231 C   0  0  0  0  0  0  0  0  0  0  0  0
   -1.4666    2.9848   -0.5300 C   0  0  0  0  0  0  0  0  0  0  0  0
    1.8760    1.4566   -1.4264 C   0  0  0  0  0  0  0  0  0  0  0  0
    2.8535    1.9020   -1.6459 H   0  0  0  0  0  0  0  0  0  0  0  0
    1.2993    3.8532   -1.2277 C   0  0  0  0  0  0  0  0  0  0  0  0
    0.9952    4.3398   -2.1773 H   0  0  0  0  0  0  0  0  0  0  0  0
    2.4003    3.9144   -1.1602 H   0  0  0  0  0  0  0  0  0  0  0  0
    0.8526    4.4391   -0.4009 H   0  0  0  0  0  0  0  0  0  0  0  0
   -2.7870    5.0403   -0.5754 C   0  0  0  0  0  0  0  0  0  0  0  0
   -2.9237    6.0660   -0.9487 H   0  0  0  0  0  0  0  0  0  0  0  0
   -2.3503    1.0883    0.6260 O   0  5  0  0  0  0  0  0  0  0  0  0
   -3.7302    4.4721    0.2938 C   0  0  0  0  0  0  0  0  0  0  0  0
   -4.6040    5.0559    0.6206 H   0  0  0  0  0  0  0  0  0  0  0  0
    3.1150   -0.7029   -1.7627 C   0  0  0  0  0  0  0  0  0  0  0  0
    3.2571   -2.0201   -1.2691 C   0  0  0  0  0  0  0  0  0  0  0  0
    2.4387   -2.4370   -0.6648 H   0  0  0  0  0  0  0  0  0  0  0  0
   -2.4727    2.3941    0.2963 C   0  0  0  0  0  0  0  0  0  0  0  0
   -3.5772    3.1457    0.7257 C   0  0  0  0  0  0  0  0  0  0  0  0
   -4.3168    2.6566    1.3759 H   0  0  0  0  0  0  0  0  0  0  0  0
    4.1535   -0.1538   -2.5466 C   0  0  0  0  0  0  0  0  0  0  0  0
    4.0469    0.8549   -2.9714 H   0  0  0  0  0  0  0  0  0  0  0  0
    5.4465   -2.2001   -2.3106 C   0  0  0  0  0  0  0  0  0  0  0  0
    6.3570   -2.7812   -2.5225 H   0  0  0  0  0  0  0  0  0  0  0  0
    5.3084   -0.8980   -2.8194 C   0  0  0  0  0  0  0  0  0  0  0  0
    6.1052   -0.4611   -3.4402 H   0  0  0  0  0  0  0  0  0  0  0  0
    4.4160   -2.7583   -1.5359 C   0  0  0  0  0  0  0  0  0  0  0  0
    4.5189   -3.7788   -1.1361 H   0  0  0  0  0  0  0  0  0  0  0  0
  1  7  1  0  0  0  0
  3 14  2  0  0  0  0
  3  7  1  0  0  0  0
  4  3  1  0  0  0  0
  5  8  1  1  0  0  0
  5  1  1  0  0  0  0
  6  2  1  0  0  0  0
  7 22  2  0  0  0  0
  8  6  2  0  0  0  0
  9  8  1  0  0  0  0
 10  5  1  0  0  0  0
 10 12  1  0  0  0  0
 10 13  1  0  0  0  0
 11 10  1  0  0  0  0
 14 17  1  0  0  0  0
 15 14  1  0  0  0  0
 17 18  1  0  0  0  0
 17 23  2  0  0  0  0
 19  6  1  0  0  0  0
 19 20  1  0  0  0  0
 20 21  1  0  0  0  0
 22 16  1  0  0  0  0
 22 23  1  0  0  0  0
 23 24  1  0  0  0  0
 25 19  2  0  0  0  0
 26 25  1  0  0  0  0
 27 31  1  0  0  0  0
 28 27  1  0  0  0  0
 29 25  1  0  0  0  0
 29 27  2  0  0  0  0
 30 29  1  0  0  0  0
 31 20  2  0  0  0  0
 31 32  1  0  0  0  0
M  CHG  2   2  -1  16  -1
M  END
