4,6,7
q = -2.0, confidence = 0.944

 28 29  0  0  0  0  0  0  0  0999 V2000
   -3.6615   -2.7136    0.0909 Br  0  0  0  0  0  0  0  0  0  0  0  0
   -6.0690    2.4634    0.2327 Br  0  0  0  0  0  0  0  0  0  0  0  0
    4.8959   -0.9182    0.7877 Br  0  0  0  0  0  0  0  0  0  0  0  0
    0.3391    1.1785   -0.2042 N   0  0  0  0  0  2  0  0  0  0  0  0
    1.4894    1.8959   -0.0833 N   0  0  0  0  0  0  0  0  0  0  0  0
   -1.1431   -1.0478   -0.0646 O   0  5  0  0  0  0  0  0  0  0  0  0
    2.3740   -0.1572   -0.6405 O   0  5  0  0  0  0  0  0  0  0  0  0
   -2.0856    1.1673   -0.0149 C   0  0  0  0  0  0  0  0  0  0  0  0
   -2.1989   -0.2623   -0.0253 C   0  0  0  0  0  0  0  0  0  0  0  0
   -3.5024   -0.8245    0.0638 C   0  0  0  0  0  0  0  0  0  0  0  0
   -4.6471   -0.0248    0.1367 C   0  0  0  0  0  0  0  0  0  0  0  0
   -5.6395   -0.4912    0.1963 H   0  0  0  0  0  0  0  0  0  0  0  0
   -4.5098    1.3774    0.1355 C   0  0  0  0  0  0  0  0  0  0  0  0
   -3.2497    1.9708    0.0712 C   0  0  0  0  0  0  0  0  0  0  0  0
   -3.1496    3.0655    0.0846 H   0  0  0  0  0  0  0  0  0  0  0  0
   -0.7925    1.8077   -0.0144 C   0  0  0  0  0  3  0  0  0  0  0  0
   -0.7389    2.8964    0.1743 H   0  0  0  0  0  0  0  0  0  0  0  0
    2.5187    1.0989   -0.3223 C   0  0  0  0  0  0  0  0  0  0  0  0
    3.8891    1.6532   -0.2118 C   0  0  0  0  0  0  0  0  0  0  0  0
    5.0144    0.9004    0.2025 C   0  0  0  0  0  0  0  0  0  0  0  0
    6.2891    1.4862    0.2664 C   0  0  0  0  0  0  0  0  0  0  0  0
    7.1441    0.8808    0.5983 H   0  0  0  0  0  0  0  0  0  0  0  0
    6.4595    2.8338   -0.0788 C   0  0  0  0  0  0  0  0  0  0  0  0
    7.4640    3.2804   -0.0312 H   0  0  0  0  0  0  0  0  0  0  0  0
    5.3534    3.6052   -0.4699 C   0  0  0  0  0  0  0  0  0  0  0  0
    5.4793    4.6658   -0.7321 H   0  0  0  0  0  0  0  0  0  0  0  0
    4.0871    3.0175   -0.5283 C   0  0  0  0  0  0  0  0  0  0  0  0
    3.2025    3.5973   -0.8276 H   0  0  0  0  0  0  0  0  0  0  0  0
  4  5  1  0  0  0  0
  4 16  1  0  0  0  0
  6  9  1  0  0  0  0
  7 18  1  0  0  0  0
  8 16  1  0  0  0  0
  8 14  1  0  0  0  0
  9  8  2  0  0  0  0
  9 10  1  0  0  0  0
 10  1  1  0  0  0  0
 10 11  2  0  0  0  0
 11 12  1  0  0  0  0
 13 11  1  0  0  0  0
 13  2  1  0  0  0  0
 14 15  1  0  0  0  0
 14 13  2  0  0  0  0
 16 17  1  0  0  0  0
 18 19  1  0  0  0  0
 18  5  2  0  0  0  0
 19 20  1  0  0  0  0
 20 21  2  0  0  0  0
 20  3  1  0  0  0  0
 21 22  1  0  0  0  0
 23 24  1  0  0  0  0
 23 21  1  0  0  0  0
 25 23  2  0  0  0  0
 26 25  1  0  0  0  0
 27 25  1  0  0  0  0
 27 19  2  0  0  0  0
 28 27  1  0  0  0  0
M  CHG  2   6  -1   7  -1
M  END
