2,12,17
q = -2.0, confidence = 0.932

 29 30  0  0  0  0  0  0  0  0999 V2000
    2.7120   -0.4650    1.1402 C   0  0  0  0  0  0  0  0  0  0  0  0
    2.1255    0.6200    0.6510 O   0  5  0  0  0  0  0  0  0  0  0  0
    4.0398   -0.4542    1.6350 C   0  0  0  0  0  0  0  0  0  0  0  0
    4.5992    0.4927    1.6216 H   0  0  0  0  0  0  0  0  0  0  0  0
    4.6072   -1.6336    2.1283 C   0  0  0  0  0  0  0  0  0  0  0  0
    5.6385   -1.6178    2.5119 H   0  0  0  0  0  0  0  0  0  0  0  0
    3.8754   -2.8402    2.1408 C   0  0  0  0  0  0  0  0  0  0  0  0
    4.3338   -3.7599    2.5312 H   0  0  0  0  0  0  0  0  0  0  0  0
    2.5633   -2.8695    1.6575 C   0  0  0  0  0  0  0  0  0  0  0  0
    2.0007   -3.8142    1.6708 H   0  0  0  0  0  0  0  0  0  0  0  0
    1.9756   -1.6888    1.1581 C   0  0  0  0  0  0  0  0  0  0  0  0
    0.6716   -1.5501    0.6415 N   0  0  0  0  0  2  0  0  0  0  0  0
   -0.2126   -2.5171    0.5673 C   0  0  0  0  0  3  0  0  0  0  0  0
    0.0849   -3.5144    0.9404 H   0  0  0  0  0  0  0  0  0  0  0  0
   -1.5460   -2.4128    0.0506 C   0  0  0  0  0  0  0  0  0  0  0  0
   -2.0639   -1.1820   -0.4695 C   0  0  0  0  0  0  0  0  0  0  0  0
   -1.4055   -0.0511   -0.5411 O   0  5  0  0  0  0  0  0  0  0  0  0
   -3.4202   -1.1662   -0.9550 C   0  0  0  0  0  0  0  0  0  0  0  0
   -3.8294    0.0535   -1.4149 O   0  0  0  0  0  0  0  0  0  0  0  0
   -5.1444    0.1559   -1.9352 C   0  0  0  0  0  0  0  0  0  0  0  0
   -5.2942   -0.5141   -2.8108 H   0  0  0  0  0  0  0  0  0  0  0  0
   -5.2743    1.2052   -2.2577 H   0  0  0  0  0  0  0  0  0  0  0  0
   -5.9129   -0.0860   -1.1673 H   0  0  0  0  0  0  0  0  0  0  0  0
   -4.1993   -2.3243   -0.9299 C   0  0  0  0  0  0  0  0  0  0  0  0
   -5.2311   -2.3054   -1.3060 H   0  0  0  0  0  0  0  0  0  0  0  0
   -3.6703   -3.5362   -0.4194 C   0  0  0  0  0  0  0  0  0  0  0  0
   -4.2992   -4.4374   -0.4090 H   0  0  0  0  0  0  0  0  0  0  0  0
   -2.3723   -3.5787    0.0619 C   0  0  0  0  0  0  0  0  0  0  0  0
   -1.9559   -4.5155    0.4625 H   0  0  0  0  0  0  0  0  0  0  0  0
  1 11  2  0  0  0  0
  1  3  1  0  0  0  0
  2  1  1  0  0  0  0
  3  5  2  0  0  0  0
  4  3  1  0  0  0  0
  5  7  1  0  0  0  0
  5  6  1  0  0  0  0
  7  8  1  0  0  0  0
  9 10  1  0  0  0  0
  9  7  2  0  0  0  0
 11  9  1  0  0  0  0
 12 11  1  0  0  0  0
 13 12  1  0  0  0  0
 13 14  1  0  0  0  0
 15 28  1  0  0  0  0
 15 13  1  0  0  0  0
 16 15  2  0  0  0  0
 17 16  1  0  0  0  0
 18 24  2  0  0  0  0
 18 16  1  0  0  0  0
 19 18  1  0  0  0  0
 20 19  1  0  0  0  0
 20 23  1  0  0  0  0
 21 20  1  0  0  0  0
 22 20  1  0  0  0  0
 24 26  1  0  0  0  0
 25 24  1  0  0  0  0
 26 27  1  0  0  0  0
 26 28  2  0  0  0  0
 28 29  1  0  0  0  0
M  CHG  2   2  -1  17  -1
M  END
