8,9,14
q = -2.0, confidence = 0.844

 46 48  0  0  0  0  0  0  0  0999 V2000
   -5.8071   -0.6927   -0.1402 C   0  0  0  0  0  0  0  0  0  0  0  0
   -8.1184    0.0361   -0.0613 N   0  0  0  0  0  0  0  0  0  0  0  0
   -3.9997    0.9196   -0.1219 N   0  0  0  0  0  0  0  0  0  0  0  0
   -6.8089    0.3056   -0.0789 C   0  0  0  0  0  0  0  0  0  0  0  0
   -6.5056    1.3658   -0.0427 H   0  0  0  0  0  0  0  0  0  0  0  0
   -8.4915   -1.2556   -0.1079 C   0  0  0  0  0  0  0  0  0  0  0  0
   -9.5789   -1.4506   -0.0939 H   0  0  0  0  0  0  0  0  0  0  0  0
   -3.5065   -1.3387   -0.1561 O   0  5  0  0  0  0  0  0  0  0  0  0
   -2.6348    1.0035   -0.1528 N   0  0  0  0  0  2  0  0  0  0  0  0
    6.6754    1.4421    0.1798 O   0  0  0  0  0  0  0  0  0  0  0  0
    3.9413    1.0976   -0.0395 N   0  0  0  0  0  0  0  0  0  0  0  0
   -7.5837   -2.3262   -0.1725 C   0  0  0  0  0  0  0  0  0  0  0  0
   -7.9477   -3.3636   -0.2115 H   0  0  0  0  0  0  0  0  0  0  0  0
   -0.0273    0.1933   -0.0190 O   0  5  0  0  0  0  0  0  0  0  0  0
    4.8200    0.0867   -0.0225 N   0  0  0  0  0  0  0  0  0  0  0  0
    4.4769   -0.8863    0.0141 H   0  0  0  0  0  0  0  0  0  0  0  0
   -6.2143   -2.0411   -0.1884 C   0  0  0  0  0  0  0  0  0  0  0  0
   -5.4537   -2.8336   -0.2416 H   0  0  0  0  0  0  0  0  0  0  0  0
   -4.3772   -0.3417   -0.1496 C   0  0  0  0  0  0  0  0  0  0  0  0
    9.1836   -1.8896    0.5923 N   0  0  0  0  0  0  0  0  0  0  0  0
   -2.1163    2.2092   -0.1170 C   0  0  0  0  0  3  0  0  0  0  0  0
   -2.8319    3.0525   -0.0918 H   0  0  0  0  0  0  0  0  0  0  0  0
   -0.7096    2.5072   -0.1155 C   0  0  0  0  0  0  0  0  0  0  0  0
   -0.3041    3.8669   -0.1383 C   0  0  0  0  0  0  0  0  0  0  0  0
   -1.0862    4.6425   -0.1631 H   0  0  0  0  0  0  0  0  0  0  0  0
    1.0458    4.2421   -0.1358 C   0  0  0  0  0  0  0  0  0  0  0  0
    2.0112    3.2163   -0.1057 C   0  0  0  0  0  0  0  0  0  0  0  0
    3.0858    3.4578   -0.1010 H   0  0  0  0  0  0  0  0  0  0  0  0
    1.6639    1.8511   -0.0768 C   0  0  0  0  0  0  0  0  0  0  0  0
    0.2871    1.4849   -0.0785 C   0  0  0  0  0  0  0  0  0  0  0  0
    1.4667    5.6895   -0.1688 C   0  0  0  0  0  0  0  0  0  0  0  0
    0.5940    6.3702   -0.1595 H   0  0  0  0  0  0  0  0  0  0  0  0
    2.0624    5.9125   -1.0781 H   0  0  0  0  0  0  0  0  0  0  0  0
    2.1063    5.9413    0.7020 H   0  0  0  0  0  0  0  0  0  0  0  0
    2.6795    0.8024   -0.0447 C   0  0  0  0  0  0  0  0  0  0  0  0
    2.3173   -0.2494   -0.0286 H   0  0  0  0  0  0  0  0  0  0  0  0
    6.1962    0.3251    0.0584 C   0  0  0  0  0  0  0  0  0  0  0  0
    7.0333   -0.9225    0.0069 C   0  0  0  0  0  0  0  0  0  0  0  0
    6.6473   -2.1287   -0.6094 C   0  0  0  0  0  0  0  0  0  0  0  0
    5.6746   -2.2253   -1.1180 H   0  0  0  0  0  0  0  0  0  0  0  0
    7.5420   -3.2064   -0.6064 C   0  0  0  0  0  0  0  0  0  0  0  0
    7.2812   -4.1612   -1.0863 H   0  0  0  0  0  0  0  0  0  0  0  0
    8.7920   -3.0362    0.0111 C   0  0  0  0  0  0  0  0  0  0  0  0
    9.5185   -3.8686    0.0293 H   0  0  0  0  0  0  0  0  0  0  0  0
    8.3245   -0.8635    0.5786 C   0  0  0  0  0  0  0  0  0  0  0  0
    8.6492    0.0840    1.0425 H   0  0  0  0  0  0  0  0  0  0  0  0
  1  4  1  0  0  0  0
  4  2  2  0  0  0  0
  4  5  1  0  0  0  0
  6  7  1  0  0  0  0
  6  2  1  0  0  0  0
  8 19  1  0  0  0  0
  9  3  1  0  0  0  0
  9 21  1  0  0  0  0
 11 15  1  0  0  0  0
 12  6  2  0  0  0  0
 13 12  1  0  0  0  0
 15 16  1  0  0  0  0
 15 37  1  0  0  0  0
 17 12  1  0  0  0  0
 17  1  2  0  0  0  0
 18 17  1  0  0  0  0
 19  1  1  0  0  0  0
 19  3  2  0  0  0  0
 21 23  1  0  0  0  0
 21 22  1  0  0  0  0
 23 30  1  0  0  0  0
 24 26  1  0  0  0  0
 24 23  2  0  0  0  0
 25 24  1  0  0  0  0
 26 27  2  0  0  0  0
 27 28  1  0  0  0  0
 27 29  1  0  0  0  0
 29 35  1  0  0  0  0
 30 29  2  0  0  0  0
 30 14  1  0  0  0  0
 31 32  1  0  0  0  0
 31 26  1  0  0  0  0
 31 34  1  0  0  0  0
 33 31  1  0  0  0  0
 35 11  2  0  0  0  0
 35 36  1  0  0  0  0
 37 10  2  0  0  0  0
 38 37  1  0  0  0  0
 38 45  2  0  0  0  0
 39 41  2  0  0  0  0
 39 38  1  0  0  0  0
 40 39  1  0  0  0  0
 41 43  1  0  0  0  0
 42 41  1  0  0  0  0
 43 44  1  0  0  0  0
 43 20  2  0  0  0  0
 45 20  1  0  0  0  0
 45 46  1  0  0  0  0
M  CHG  2   8  -1  14  -1
M  END
