1,4,5
q = -2.0, confidence = 0.882

 19 18  0  0  0  0  0  0  0  0999 V2000
    0.2080   -0.2195   -1.6461 O   0  0  0  0  0  1  0  0  0  0  0  0
    1.2813   -0.9567   -2.1371 C   0  0  0  0  0  0  0  0  0  0  0  0
    2.5437   -0.6494   -1.3183 C   0  0  0  0  0  0  0  0  0  0  0  0
    2.1874   -0.6400    0.1031 N   0  0  0  0  0  0  0  0  0  0  0  0
    1.3330    1.8778    0.3214 O   0  0  0  0  0  1  0  0  0  0  0  0
    2.6943    1.7144    0.5567 C   0  0  0  0  0  0  0  0  0  0  0  0
    2.9859    0.2566    0.9422 C   0  0  0  0  0  0  0  0  0  0  0  0
    2.0551   -1.9776    0.6670 C   0  0  0  0  0  0  0  0  0  0  0  0
    3.0343   -2.5135    0.7257 H   0  0  0  0  0  0  0  0  0  0  0  0
    1.3687   -2.5850    0.0443 H   0  0  0  0  0  0  0  0  0  0  0  0
    1.6137   -1.8995    1.6783 H   0  0  0  0  0  0  0  0  0  0  0  0
    4.0823    0.0343    0.8977 H   0  0  0  0  0  0  0  0  0  0  0  0
    2.6481    0.0896    1.9851 H   0  0  0  0  0  0  0  0  0  0  0  0
    3.0444    2.3817    1.3802 H   0  0  0  0  0  0  0  0  0  0  0  0
    3.2829    2.0118   -0.3474 H   0  0  0  0  0  0  0  0  0  0  0  0
    3.3703   -1.3678   -1.5461 H   0  0  0  0  0  0  0  0  0  0  0  0
    2.8991    0.3635   -1.5918 H   0  0  0  0  0  0  0  0  0  0  0  0
    1.4752   -0.7220   -3.2115 H   0  0  0  0  0  0  0  0  0  0  0  0
    1.0539   -2.0532   -2.0994 H   0  0  0  0  0  0  0  0  0  0  0  0
  2 19  1  0  0  0  0
  2  1  1  0  0  0  0
  2  3  1  0  0  0  0
  3  4  1  0  0  0  0
  4  8  1  0  0  0  0
  4  7  1  0  0  0  0
  5  6  1  0  0  0  0
  6  7  1  0  0  0  0
  6 14  1  0  0  0  0
  7 13  1  0  0  0  0
  8  9  1  0  0  0  0
  8 11  1  0  0  0  0
 10  8  1  0  0  0  0
 12  7  1  0  0  0  0
 15  6  1  0  0  0  0
 16  3  1  0  0  0  0
 17  3  1  0  0  0  0
 18  2  1  0  0  0  0
M  END
