1,4,5
q = -2.0, confidence = 0.926

 28 29  0  0  0  0  0  0  0  0999 V2000
   -0.0328   -0.6965   -0.2058 N   0  0  0  0  0  2  0  0  0  0  0  0
    1.1232   -1.4161   -0.1815 N   0  0  0  0  0  0  0  0  0  0  0  0
   -6.2849   -2.1361   -0.0494 Cl  0  0  0  0  0  0  0  0  0  0  0  0
   -1.6116    1.4527   -0.0091 O   0  5  0  0  0  0  0  0  0  0  0  0
    1.9995    0.7084   -0.2002 O   0  5  0  0  0  0  0  0  0  0  0  0
   -2.6438    0.6329   -0.0321 C   0  0  0  0  0  0  0  0  0  0  0  0
   -3.9571    1.1563    0.0438 C   0  0  0  0  0  0  0  0  0  0  0  0
   -5.0669    0.3104    0.0384 C   0  0  0  0  0  0  0  0  0  0  0  0
   -4.8887   -1.0874   -0.0417 C   0  0  0  0  0  0  0  0  0  0  0  0
   -3.6070   -1.6312   -0.1129 C   0  0  0  0  0  0  0  0  0  0  0  0
   -2.4676   -0.7870   -0.1119 C   0  0  0  0  0  0  0  0  0  0  0  0
   -1.1561   -1.3739   -0.1518 C   0  0  0  0  0  3  0  0  0  0  0  0
    2.1574   -0.5908   -0.1984 C   0  0  0  0  0  0  0  0  0  0  0  0
    3.5312   -1.1335   -0.1812 C   0  0  0  0  0  0  0  0  0  0  0  0
    4.6317   -0.2504   -0.2003 C   0  0  0  0  0  0  0  0  0  0  0  0
    5.9381   -0.7558   -0.1790 C   0  0  0  0  0  0  0  0  0  0  0  0
    6.1563   -2.1428   -0.1386 C   0  0  0  0  0  0  0  0  0  0  0  0
    5.0620   -3.0260   -0.1208 C   0  0  0  0  0  0  0  0  0  0  0  0
    3.7548   -2.5278   -0.1422 C   0  0  0  0  0  0  0  0  0  0  0  0
   -4.0763    2.2470    0.1082 H   0  0  0  0  0  0  0  0  0  0  0  0
   -6.0842    0.7230    0.0963 H   0  0  0  0  0  0  0  0  0  0  0  0
   -3.4754   -2.7214   -0.1720 H   0  0  0  0  0  0  0  0  0  0  0  0
   -1.0650   -2.4759   -0.1261 H   0  0  0  0  0  0  0  0  0  0  0  0
    4.4383    0.8311   -0.2365 H   0  0  0  0  0  0  0  0  0  0  0  0
    6.7937   -0.0638   -0.1958 H   0  0  0  0  0  0  0  0  0  0  0  0
    7.1833   -2.5385   -0.1224 H   0  0  0  0  0  0  0  0  0  0  0  0
    5.2326   -4.1129   -0.0909 H   0  0  0  0  0  0  0  0  0  0  0  0
    2.8845   -3.1989   -0.1296 H   0  0  0  0  0  0  0  0  0  0  0  0
  1  2  1  0  0  0  0
  1 12  1  0  0  0  0
  3  9  1  0  0  0  0
  5 13  1  0  0  0  0
  6  4  1  0  0  0  0
  6  7  1  0  0  0  0
  7 20  1  0  0  0  0
  8  7  2  0  0  0  0
  8 21  1  0  0  0  0
  9  8  1  0  0  0  0
 10 11  1  0  0  0  0
 10  9  2  0  0  0  0
 11  6  2  0  0  0  0
 12 23  1  0  0  0  0
 12 11  1  0  0  0  0
 13  2  2  0  0  0  0
 13 14  1  0  0  0  0
 14 19  1  0  0  0  0
 15 14  2  0  0  0  0
 15 16  1  0  0  0  0
 16 17  2  0  0  0  0
 17 26  1  0  0  0  0
 17 18  1  0  0  0  0
 18 27  1  0  0  0  0
 19 28  1  0  0  0  0
 19 18  2  0  0  0  0
 22 10  1  0  0  0  0
 24 15  1  0  0  0  0
 25 16  1  0  0  0  0
M  CHG  2   4  -1   5  -1
M  END
