2,3,5
q = -2.0, confidence = 0.916

 42 44  0  0  0  0  0  0  0  0999 V2000
    6.4828   -0.9743   -0.1377 Br  0  0  0  0  0  0  0  0  0  0  0  0
    1.3203    2.1800    0.0544 O   0  5  0  0  0  0  0  0  0  0  0  0
   -2.1792    1.0745   -0.0096 O   0  5  0  0  0  0  0  0  0  0  0  0
   -7.2959   -2.7874    0.0098 O   0  0  0  0  0  0  0  0  0  0  0  0
   -0.0455   -0.1848   -0.0004 N   0  0  0  0  0  2  0  0  0  0  0  0
   -1.1553   -0.9851    0.0131 N   0  0  0  0  0  0  0  0  0  0  0  0
    4.8359   -0.0137   -0.0604 C   0  0  0  0  0  0  0  0  0  0  0  0
    4.8583    1.3982   -0.0130 C   0  0  0  0  0  0  0  0  0  0  0  0
    5.8168    1.9365   -0.0159 H   0  0  0  0  0  0  0  0  0  0  0  0
    3.6561    2.0936    0.0277 C   0  0  0  0  0  0  0  0  0  0  0  0
    3.6426    3.1930    0.0511 H   0  0  0  0  0  0  0  0  0  0  0  0
    2.3954    1.4275    0.0293 C   0  0  0  0  0  0  0  0  0  0  0  0
    2.3835   -0.0147    0.0024 C   0  0  0  0  0  0  0  0  0  0  0  0
    3.6310   -0.7043   -0.0559 C   0  0  0  0  0  3  0  0  0  0  0  0
    3.6324   -1.8007   -0.1031 H   0  0  0  0  0  0  0  0  0  0  0  0
    1.1508   -0.7733    0.0188 C   0  0  0  0  0  0  0  0  0  0  0  0
    1.1987   -2.2674    0.0517 C   0  0  0  0  0  0  0  0  0  0  0  0
    1.6465   -2.9347    1.2087 C   0  0  0  0  0  0  0  0  0  0  0  0
    1.9518   -2.3465    2.0871 H   0  0  0  0  0  0  0  0  0  0  0  0
    1.6996   -4.3366    1.2424 C   0  0  0  0  0  0  0  0  0  0  0  0
    2.0471   -4.8474    2.1532 H   0  0  0  0  0  0  0  0  0  0  0  0
    1.3131   -5.0829    0.1190 C   0  0  0  0  0  0  0  0  0  0  0  0
    1.3589   -6.1823    0.1438 H   0  0  0  0  0  0  0  0  0  0  0  0
    0.8686   -4.4218   -1.0384 C   0  0  0  0  0  0  0  0  0  0  0  0
    0.5652   -5.0023   -1.9230 H   0  0  0  0  0  0  0  0  0  0  0  0
    0.8062   -3.0227   -1.0714 C   0  0  0  0  0  0  0  0  0  0  0  0
    0.4471   -2.5025   -1.9711 H   0  0  0  0  0  0  0  0  0  0  0  0
   -2.2451   -0.2388    0.0023 C   0  0  0  0  0  0  0  0  0  0  0  0
   -3.5700   -0.8822    0.0059 C   0  0  0  0  0  0  0  0  0  0  0  0
   -3.6923   -2.2926   -0.0483 C   0  0  0  0  0  0  0  0  0  0  0  0
   -2.7755   -2.8979   -0.0917 H   0  0  0  0  0  0  0  0  0  0  0  0
   -4.9467   -2.8951   -0.0464 C   0  0  0  0  0  0  0  0  0  0  0  0
   -5.0586   -3.9882   -0.0890 H   0  0  0  0  0  0  0  0  0  0  0  0
   -6.1193   -2.1056    0.0129 C   0  0  0  0  0  0  0  0  0  0  0  0
   -6.0097   -0.6999    0.0719 C   0  0  0  0  0  0  0  0  0  0  0  0
   -6.9040   -0.0648    0.1241 H   0  0  0  0  0  0  0  0  0  0  0  0
   -4.7415   -0.1037    0.0685 C   0  0  0  0  0  0  0  0  0  0  0  0
   -4.6450    0.9901    0.1232 H   0  0  0  0  0  0  0  0  0  0  0  0
   -8.5025   -2.0515    0.0709 C   0  0  0  0  0  0  0  0  0  0  0  0
   -8.5751   -1.4495    1.0046 H   0  0  0  0  0  0  0  0  0  0  0  0
   -9.3229   -2.7927    0.0571 H   0  0  0  0  0  0  0  0  0  0  0  0
   -8.6174   -1.3690   -0.8013 H   0  0  0  0  0  0  0  0  0  0  0  0
  1  7  1  0  0  0  0
  3 28  1  0  0  0  0
  4 34  1  0  0  0  0
  4 39  1  0  0  0  0
  5  6  1  0  0  0  0
  5 16  1  0  0  0  0
  7 14  1  0  0  0  0
  7  8  2  0  0  0  0
  8 10  1  0  0  0  0
  9  8  1  0  0  0  0
 10 12  2  0  0  0  0
 10 11  1  0  0  0  0
 12  2  1  0  0  0  0
 13 16  2  0  0  0  0
 13 12  1  0  0  0  0
 14 13  1  0  0  0  0
 15 14  1  0  0  0  0
 16 17  1  0  0  0  0
 17 18  1  0  0  0  0
 18 20  2  0  0  0  0
 18 19  1  0  0  0  0
 20 21  1  0  0  0  0
 22 23  1  0  0  0  0
 22 20  1  0  0  0  0
 24 22  2  0  0  0  0
 25 24  1  0  0  0  0
 26 24  1  0  0  0  0
 26 17  2  0  0  0  0
 27 26  1  0  0  0  0
 28 29  1  0  0  0  0
 28  6  2  0  0  0  0
 29 37  1  0  0  0  0
 30 32  1  0  0  0  0
 30 29  2  0  0  0  0
 31 30  1  0  0  0  0
 32 34  2  0  0  0  0
 33 32  1  0  0  0  0
 34 35  1  0  0  0  0
 35 36  1  0  0  0  0
 37 35  2  0  0  0  0
 37 38  1  0  0  0  0
 39 40  1  0  0  0  0
 41 39  1  0  0  0  0
 42 39  1  0  0  0  0
M  CHG  2   2  -1   3  -1
M  END
