1,5,6
q = -2.0, confidence = 0.856

 40 41  0  0  0  0  0  0  0  0999 V2000
    0.6169    0.9610   -0.1162 N   0  0  0  0  0  2  0  0  0  0  0  0
   -0.7099    1.2706   -0.0699 N   0  0  0  0  0  0  0  0  0  0  0  0
   -7.1339    0.4173   -0.0919 N   0  0  0  0  0  0  0  0  0  0  0  0
    5.4875   -0.7498   -0.0349 O   0  0  0  0  0  0  0  0  0  0  0  0
    2.8758   -0.5755   -0.0116 O   0  5  0  0  0  0  0  0  0  0  0  0
   -0.8826   -1.0323   -0.1712 O   0  5  0  0  0  0  0  0  0  0  0  0
    2.9007    1.8397   -0.0650 C   0  0  0  0  0  0  0  0  0  0  0  0
    3.5443    0.5702   -0.0501 C   0  0  0  0  0  0  0  0  0  0  0  0
    4.9730    0.5039   -0.0488 C   0  0  0  0  0  0  0  0  0  0  0  0
    5.7226    1.6908   -0.0588 C   0  0  0  0  0  0  0  0  0  0  0  0
    6.8199    1.6472   -0.0571 H   0  0  0  0  0  0  0  0  0  0  0  0
    5.0782    2.9468   -0.0684 C   0  0  0  0  0  0  0  0  0  0  0  0
    5.6849    3.8639   -0.0764 H   0  0  0  0  0  0  0  0  0  0  0  0
    3.6902    3.0239   -0.0694 C   0  0  0  0  0  0  0  0  0  0  0  0
    3.1808    3.9992   -0.0786 H   0  0  0  0  0  0  0  0  0  0  0  0
    1.4656    1.9615   -0.0597 C   0  0  0  0  0  3  0  0  0  0  0  0
    1.0270    2.9758   -0.0085 H   0  0  0  0  0  0  0  0  0  0  0  0
   -1.4413    0.1701   -0.1307 C   0  0  0  0  0  0  0  0  0  0  0  0
   -2.9013    0.2402   -0.1201 C   0  0  0  0  0  0  0  0  0  0  0  0
   -3.5760    1.4824   -0.0623 C   0  0  0  0  0  0  0  0  0  0  0  0
   -2.9764    2.4032   -0.0274 H   0  0  0  0  0  0  0  0  0  0  0  0
   -4.9652    1.5467   -0.0513 C   0  0  0  0  0  0  0  0  0  0  0  0
   -5.4471    2.5315   -0.0073 H   0  0  0  0  0  0  0  0  0  0  0  0
   -5.7568    0.3587   -0.1003 C   0  0  0  0  0  0  0  0  0  0  0  0
   -5.0689   -0.8895   -0.1601 C   0  0  0  0  0  0  0  0  0  0  0  0
   -5.6308   -1.8309   -0.2034 H   0  0  0  0  0  0  0  0  0  0  0  0
   -3.6773   -0.9400   -0.1695 C   0  0  0  0  0  0  0  0  0  0  0  0
   -3.1601   -1.9088   -0.2217 H   0  0  0  0  0  0  0  0  0  0  0  0
   -7.8079    1.7002   -0.0419 C   0  0  0  0  0  0  0  0  0  0  0  0
   -7.5476    2.2734    0.8761 H   0  0  0  0  0  0  0  0  0  0  0  0
   -8.9008    1.5394   -0.0409 H   0  0  0  0  0  0  0  0  0  0  0  0
   -7.5582    2.3396   -0.9184 H   0  0  0  0  0  0  0  0  0  0  0  0
   -7.9134   -0.8038   -0.1540 C   0  0  0  0  0  0  0  0  0  0  0  0
   -7.7140   -1.3812   -1.0846 H   0  0  0  0  0  0  0  0  0  0  0  0
   -8.9890   -0.5529   -0.1349 H   0  0  0  0  0  0  0  0  0  0  0  0
   -7.7052   -1.4762    0.7083 H   0  0  0  0  0  0  0  0  0  0  0  0
    6.8936   -0.8948   -0.0431 C   0  0  0  0  0  0  0  0  0  0  0  0
    7.3510   -0.4482   -0.9549 H   0  0  0  0  0  0  0  0  0  0  0  0
    7.0948   -1.9818   -0.0354 H   0  0  0  0  0  0  0  0  0  0  0  0
    7.3640   -0.4325    0.8543 H   0  0  0  0  0  0  0  0  0  0  0  0
  1  2  1  0  0  0  0
  1 16  1  0  0  0  0
  3 29  1  0  0  0  0
  6 18  1  0  0  0  0
  7 16  1  0  0  0  0
  7  8  1  0  0  0  0
  8  9  2  0  0  0  0
  8  5  1  0  0  0  0
  9  4  1  0  0  0  0
 10 11  1  0  0  0  0
 10  9  1  0  0  0  0
 12 10  2  0  0  0  0
 13 12  1  0  0  0  0
 14 12  1  0  0  0  0
 14  7  2  0  0  0  0
 15 14  1  0  0  0  0
 16 17  1  0  0  0  0
 18 19  1  0  0  0  0
 18  2  2  0  0  0  0
 19 20  1  0  0  0  0
 20 22  2  0  0  0  0
 20 21  1  0  0  0  0
 22 23  1  0  0  0  0
 24  3  1  0  0  0  0
 24 22  1  0  0  0  0
 25 24  2  0  0  0  0
 26 25  1  0  0  0  0
 27 25  1  0  0  0  0
 27 19  2  0  0  0  0
 28 27  1  0  0  0  0
 29 31  1  0  0  0  0
 29 30  1  0  0  0  0
 32 29  1  0  0  0  0
 33 35  1  0  0  0  0
 33  3  1  0  0  0  0
 33 36  1  0  0  0  0
 34 33  1  0  0  0  0
 37 39  1  0  0  0  0
 37  4  1  0  0  0  0
 37 40  1  0  0  0  0
 38 37  1  0  0  0  0
M  CHG  2   5  -1   6  -1
M  END
