1,3,5
q = -2.0, confidence = 0.882

 38 39  0  0  0  0  0  0  0  0999 V2000
   -0.1960   -1.1340    0.0568 N   0  0  0  0  0  2  0  0  0  0  0  0
   -1.5243   -1.4010   -0.0251 N   0  0  0  0  0  0  0  0  0  0  0  0
    1.9586    0.3373   -0.3015 O   0  5  0  0  0  0  0  0  0  0  0  0
    4.5873    0.5850   -0.3670 O   0  0  0  0  0  0  0  0  0  0  0  0
   -1.5618    0.8946   -0.0933 O   0  5  0  0  0  0  0  0  0  0  0  0
    2.0647   -2.0325    0.0814 C   0  0  0  0  0  0  0  0  0  0  0  0
    2.6763   -0.7611   -0.1202 C   0  0  0  0  0  0  0  0  0  0  0  0
    4.1041   -0.6646   -0.1691 C   0  0  0  0  0  0  0  0  0  0  0  0
    4.8781   -1.8249   -0.0163 C   0  0  0  0  0  0  0  0  0  0  0  0
    5.9739   -1.7621   -0.0471 H   0  0  0  0  0  0  0  0  0  0  0  0
    4.2626   -3.0824    0.1797 C   0  0  0  0  0  0  0  0  0  0  0  0
    4.8930   -3.9757    0.2976 H   0  0  0  0  0  0  0  0  0  0  0  0
    2.8784   -3.1916    0.2228 C   0  0  0  0  0  0  0  0  0  0  0  0
    2.3928   -4.1675    0.3725 H   0  0  0  0  0  0  0  0  0  0  0  0
    0.6329   -2.1535    0.0801 C   0  0  0  0  0  3  0  0  0  0  0  0
    0.1804   -3.1627    0.0858 H   0  0  0  0  0  0  0  0  0  0  0  0
   -2.1911   -0.2583   -0.0735 C   0  0  0  0  0  0  0  0  0  0  0  0
   -3.6635   -0.2611   -0.1311 C   0  0  0  0  0  0  0  0  0  0  0  0
   -4.3710    0.9566   -0.1873 C   0  0  0  0  0  0  0  0  0  0  0  0
   -3.8034    1.8979   -0.1878 H   0  0  0  0  0  0  0  0  0  0  0  0
   -5.7700    0.9572   -0.2402 C   0  0  0  0  0  0  0  0  0  0  0  0
   -6.3118    1.9152   -0.2834 H   0  0  0  0  0  0  0  0  0  0  0  0
   -6.5013   -0.2477   -0.2399 C   0  0  0  0  0  0  0  0  0  0  0  0
   -5.7804   -1.4629   -0.1843 C   0  0  0  0  0  0  0  0  0  0  0  0
   -6.3318   -2.4168   -0.1832 H   0  0  0  0  0  0  0  0  0  0  0  0
   -4.3858   -1.4760   -0.1302 C   0  0  0  0  0  0  0  0  0  0  0  0
   -3.8254   -2.4207   -0.0866 H   0  0  0  0  0  0  0  0  0  0  0  0
   -8.0070   -0.2531   -0.2945 C   0  0  0  0  0  0  0  0  0  0  0  0
   -8.4196    0.7721   -0.3564 H   0  0  0  0  0  0  0  0  0  0  0  0
   -8.4391   -0.7404    0.6048 H   0  0  0  0  0  0  0  0  0  0  0  0
   -8.3754   -0.8235   -1.1728 H   0  0  0  0  0  0  0  0  0  0  0  0
    5.9986    0.7693   -0.4285 C   0  0  0  0  0  0  0  0  0  0  0  0
    6.4251    0.1548   -1.2561 H   0  0  0  0  0  0  0  0  0  0  0  0
    6.4680    0.4164    0.5199 H   0  0  0  0  0  0  0  0  0  0  0  0
    6.2658    2.2453   -0.6519 C   0  0  0  0  0  0  0  0  0  0  0  0
    5.8022    2.5876   -1.5978 H   0  0  0  0  0  0  0  0  0  0  0  0
    7.3561    2.4338   -0.7055 H   0  0  0  0  0  0  0  0  0  0  0  0
    5.8447    2.8480    0.1767 H   0  0  0  0  0  0  0  0  0  0  0  0
  1 15  1  0  0  0  0
  2  1  1  0  0  0  0
  3  7  1  0  0  0  0
  4  8  1  0  0  0  0
  5 17  1  0  0  0  0
  6 13  1  0  0  0  0
  7  6  2  0  0  0  0
  8  7  1  0  0  0  0
  8  9  2  0  0  0  0
  9 11  1  0  0  0  0
 10  9  1  0  0  0  0
 11 13  2  0  0  0  0
 11 12  1  0  0  0  0
 13 14  1  0  0  0  0
 15  6  1  0  0  0  0
 15 16  1  0  0  0  0
 17  2  2  0  0  0  0
 18 26  1  0  0  0  0
 18 17  1  0  0  0  0
 19 18  2  0  0  0  0
 20 19  1  0  0  0  0
 21 23  2  0  0  0  0
 21 19  1  0  0  0  0
 22 21  1  0  0  0  0
 23 24  1  0  0  0  0
 24 25  1  0  0  0  0
 24 26  2  0  0  0  0
 26 27  1  0  0  0  0
 28 23  1  0  0  0  0
 28 30  1  0  0  0  0
 29 28  1  0  0  0  0
 31 28  1  0  0  0  0
 32  4  1  0  0  0  0
 32 34  1  0  0  0  0
 33 32  1  0  0  0  0
 35 32  1  0  0  0  0
 35 38  1  0  0  0  0
 36 35  1  0  0  0  0
 37 35  1  0  0  0  0
M  CHG  2   3  -1   5  -1
M  END
