1,3,4
q = -2.0, confidence = 0.844

 56 57  0  0  0  0  0  0  0  0999 V2000
    0.5646    0.5706   -0.1559 N   0  0  0  0  0  2  0  0  0  0  0  0
    1.8298    1.0863   -0.1256 N   0  0  0  0  0  0  0  0  0  0  0  0
   -1.4312   -1.2637   -0.0427 O   0  5  0  0  0  0  0  0  0  0  0  0
    2.3564   -1.1624   -0.1731 O   0  5  0  0  0  0  0  0  0  0  0  0
    8.2719    1.1292   -0.1108 O   0  0  0  0  0  0  0  0  0  0  0  0
   -1.8288    1.0972   -0.0733 C   0  0  0  0  0  0  0  0  0  0  0  0
   -2.2978   -0.2509   -0.0572 C   0  0  0  0  0  0  0  0  0  0  0  0
   -3.6980   -0.5240   -0.0326 C   0  0  0  0  0  0  0  0  0  0  0  0
   -4.5615    0.5817   -0.0191 C   0  0  0  0  0  0  0  0  0  0  0  0
   -5.6413    0.3854    0.0017 H   0  0  0  0  0  0  0  0  0  0  0  0
   -4.1366    1.9338   -0.0283 C   0  0  0  0  0  0  0  0  0  0  0  0
   -2.7625    2.1665   -0.0545 C   0  0  0  0  0  0  0  0  0  0  0  0
   -2.3625    3.1900   -0.0644 H   0  0  0  0  0  0  0  0  0  0  0  0
   -0.4287    1.4274   -0.0917 C   0  0  0  0  0  3  0  0  0  0  0  0
   -0.1469    2.4966   -0.0496 H   0  0  0  0  0  0  0  0  0  0  0  0
    2.7199    0.1129   -0.1609 C   0  0  0  0  0  0  0  0  0  0  0  0
    4.1571    0.4088   -0.1505 C   0  0  0  0  0  0  0  0  0  0  0  0
    5.1015   -0.6456   -0.1699 C   0  0  0  0  0  0  0  0  0  0  0  0
    4.7371   -1.6822   -0.2008 H   0  0  0  0  0  0  0  0  0  0  0  0
    6.4667   -0.3733   -0.1558 C   0  0  0  0  0  0  0  0  0  0  0  0
    7.2139   -1.1794   -0.1728 H   0  0  0  0  0  0  0  0  0  0  0  0
    6.9260    0.9639   -0.1224 C   0  0  0  0  0  0  0  0  0  0  0  0
    5.9905    2.0243   -0.1042 C   0  0  0  0  0  0  0  0  0  0  0  0
    6.3232    3.0704   -0.0806 H   0  0  0  0  0  0  0  0  0  0  0  0
    4.6219    1.7409   -0.1190 C   0  0  0  0  0  0  0  0  0  0  0  0
    3.8832    2.5547   -0.1071 H   0  0  0  0  0  0  0  0  0  0  0  0
    8.7965    2.4452   -0.0845 C   0  0  0  0  0  0  0  0  0  0  0  0
    8.4898    3.0303   -0.9798 H   0  0  0  0  0  0  0  0  0  0  0  0
    9.8972    2.3418   -0.0818 H   0  0  0  0  0  0  0  0  0  0  0  0
    8.4823    2.9973    0.8291 H   0  0  0  0  0  0  0  0  0  0  0  0
   -5.1836    3.0601   -0.0114 C   0  0  0  0  0  0  0  0  0  0  0  0
   -6.0460    2.9347    1.2651 C   0  0  0  0  0  0  0  0  0  0  0  0
   -6.5735    1.9611    1.3126 H   0  0  0  0  0  0  0  0  0  0  0  0
   -6.8149    3.7343    1.2939 H   0  0  0  0  0  0  0  0  0  0  0  0
   -5.4204    3.0240    2.1761 H   0  0  0  0  0  0  0  0  0  0  0  0
   -6.0865    2.9341   -1.2596 C   0  0  0  0  0  0  0  0  0  0  0  0
   -5.4902    3.0224   -2.1901 H   0  0  0  0  0  0  0  0  0  0  0  0
   -6.8557    3.7339   -1.2643 H   0  0  0  0  0  0  0  0  0  0  0  0
   -6.6151    1.9605   -1.2894 H   0  0  0  0  0  0  0  0  0  0  0  0
   -4.5300    4.4523   -0.0221 C   0  0  0  0  0  0  0  0  0  0  0  0
   -3.8847    4.6114    0.8656 H   0  0  0  0  0  0  0  0  0  0  0  0
   -5.3136    5.2362   -0.0087 H   0  0  0  0  0  0  0  0  0  0  0  0
   -3.9151    4.6120   -0.9309 H   0  0  0  0  0  0  0  0  0  0  0  0
   -4.2262   -1.9709   -0.0288 C   0  0  0  0  0  0  0  0  0  0  0  0
   -3.7786   -2.6873   -1.3257 C   0  0  0  0  0  0  0  0  0  0  0  0
   -2.6780   -2.7281   -1.4182 H   0  0  0  0  0  0  0  0  0  0  0  0
   -4.1818   -2.1684   -2.2188 H   0  0  0  0  0  0  0  0  0  0  0  0
   -4.1612   -3.7286   -1.3332 H   0  0  0  0  0  0  0  0  0  0  0  0
   -5.7646   -2.0141    0.0247 C   0  0  0  0  0  0  0  0  0  0  0  0
   -6.0999   -3.0703    0.0270 H   0  0  0  0  0  0  0  0  0  0  0  0
   -6.2282   -1.5224   -0.8545 H   0  0  0  0  0  0  0  0  0  0  0  0
   -6.1643   -1.5370    0.9427 H   0  0  0  0  0  0  0  0  0  0  0  0
   -3.6909   -2.7260    1.2115 C   0  0  0  0  0  0  0  0  0  0  0  0
   -4.0113   -2.2218    2.1460 H   0  0  0  0  0  0  0  0  0  0  0  0
   -2.5875   -2.7882    1.2098 H   0  0  0  0  0  0  0  0  0  0  0  0
   -4.0941   -3.7594    1.2248 H   0  0  0  0  0  0  0  0  0  0  0  0
  1  2  1  0  0  0  0
  1 14  1  0  0  0  0
  4 16  1  0  0  0  0
  5 27  1  0  0  0  0
  6  7  2  0  0  0  0
  6 12  1  0  0  0  0
  7  3  1  0  0  0  0
  7  8  1  0  0  0  0
  8 44  1  0  0  0  0
  8  9  2  0  0  0  0
  9 10  1  0  0  0  0
 11  9  1  0  0  0  0
 11 31  1  0  0  0  0
 12 11  2  0  0  0  0
 13 12  1  0  0  0  0
 14  6  1  0  0  0  0
 14 15  1  0  0  0  0
 16 17  1  0  0  0  0
 16  2  2  0  0  0  0
 17 25  1  0  0  0  0
 18 20  1  0  0  0  0
 18 17  2  0  0  0  0
 19 18  1  0  0  0  0
 20 22  2  0  0  0  0
 21 20  1  0  0  0  0
 22  5  1  0  0  0  0
 22 23  1  0  0  0  0
 23 24  1  0  0  0  0
 25 26  1  0  0  0  0
 25 23  2  0  0  0  0
 27 29  1  0  0  0  0
 27 30  1  0  0  0  0
 28 27  1  0  0  0  0
 31 32  1  0  0  0  0
 32 34  1  0  0  0  0
 32 33  1  0  0  0  0
 32 35  1  0  0  0  0
 36 31  1  0  0  0  0
 37 36  1  0  0  0  0
 38 36  1  0  0  0  0
 39 36  1  0  0  0  0
 40 31  1  0  0  0  0
 40 42  1  0  0  0  0
 40 41  1  0  0  0  0
 43 40  1  0  0  0  0
 44 49  1  0  0  0  0
 44 53  1  0  0  0  0
 45 44  1  0  0  0  0
 46 45  1  0  0  0  0
 47 45  1  0  0  0  0
 48 45  1  0  0  0  0
 49 50  1  0  0  0  0
 49 52  1  0  0  0  0
 51 49  1  0  0  0  0
 53 56  1  0  0  0  0
 53 54  1  0  0  0  0
 55 53  1  0  0  0  0
M  CHG  2   3  -1   4  -1
M  END
