5,7,8
q = -2.0, confidence = 0.826

 28 29  0  0  1  0  0  0  0  0999 V2000
   -7.3584    0.3743   -0.7321 O   0  0  0  0  0  0  0  0  0  0  0  0
   -8.2734    0.0347   -0.6314 H   0  0  0  0  0  0  0  0  0  0  0  0
   -7.0623   -1.3482    0.7040 O   0  0  0  0  0  0  0  0  0  0  0  0
   -0.9195   -2.1436   -0.5724 O   0  5  0  0  0  0  0  0  0  0  0  0
    1.3201   -1.9746   -0.4243 O   0  0  0  0  0  0  0  0  0  0  0  0
    3.7687    3.0329    0.2735 O   0  5  0  0  0  0  0  0  0  0  0  0
    3.8713    0.7708    0.0847 O   0  0  0  0  0  0  0  0  0  0  0  0
    1.3778    0.4469    0.0344 N   0  0  0  0  0  2  0  0  0  0  0  0
   -6.5935   -0.4298    0.0535 C   0  0  0  0  0  0  0  0  0  0  0  0
   -5.1479   -0.0593    0.0241 C   0  0  0  0  0  0  0  0  0  0  0  0
   -4.2504   -0.8305    0.7890 C   0  0  0  0  0  0  0  0  0  0  0  0
   -4.6511   -1.6703    1.3748 H   0  0  0  0  0  0  0  0  0  0  0  0
   -2.8868   -0.5321    0.7944 C   0  0  0  0  0  0  0  0  0  0  0  0
   -2.1963   -1.1403    1.3921 H   0  0  0  0  0  0  0  0  0  0  0  0
   -2.3927    0.5580    0.0429 C   0  0  0  0  0  0  0  0  0  0  0  0
   -3.2994    1.3317   -0.7172 C   0  0  0  0  0  0  0  0  0  0  0  0
   -2.9229    2.1691   -1.3240 H   0  0  0  0  0  0  0  0  0  0  0  0
   -4.6633    1.0243   -0.7348 C   0  0  0  0  0  0  0  0  0  0  0  0
   -5.3624    1.6195   -1.3379 H   0  0  0  0  0  0  0  0  0  0  0  0
   -0.9605    0.9392    0.0808 C   0  0  0  0  0  0  0  0  0  0  0  0
    0.0980    0.0076   -0.0363 C   0  0  1  0  0  3  0  0  0  0  0  0
    1.7332    1.7406    0.1986 C   0  0  0  0  0  0  0  0  0  0  0  0
    0.7372    2.7141    0.2997 C   0  0  0  0  0  0  0  0  0  0  0  0
    1.0331    3.7655    0.4260 H   0  0  0  0  0  0  0  0  0  0  0  0
   -0.6021    2.3048    0.2453 C   0  0  0  0  0  0  0  0  0  0  0  0
   -1.4057    3.0482    0.3528 H   0  0  0  0  0  0  0  0  0  0  0  0
    0.0892   -1.4862   -0.3648 C   0  0  0  0  0  0  0  0  0  0  0  0
    3.2310    1.9416    0.1974 C   0  0  0  0  0  0  0  0  0  0  0  0
  1  2  1  0  0  0  0
  1  9  1  0  0  0  0
  4 27  1  0  0  0  0
  5 27  2  0  0  0  0
  7 28  2  0  0  0  0
  8 22  1  0  0  0  0
  9  3  2  0  0  0  0
 10  9  1  0  0  0  0
 10 11  1  0  0  0  0
 11 13  2  0  0  0  0
 11 12  1  0  0  0  0
 13 14  1  0  0  0  0
 15 20  1  0  0  0  0
 15 13  1  0  0  0  0
 16 15  2  0  0  0  0
 17 16  1  0  0  0  0
 18 16  1  0  0  0  0
 18 10  2  0  0  0  0
 19 18  1  0  0  0  0
 20 25  2  0  0  0  0
 21 27  1  6  0  0  0
 21  8  1  0  0  0  0
 21 20  1  0  0  0  0
 22 23  2  0  0  0  0
 23 24  1  0  0  0  0
 25 23  1  0  0  0  0
 25 26  1  0  0  0  0
 28 22  1  0  0  0  0
 28  6  1  0  0  0  0
M  CHG  2   4  -1   6  -1
M  END
