1,2,3
q = -2.0, confidence = 0.94

 38 38  0  0  1  0  0  0  0  0999 V2000
   -0.7047    2.2258   -0.3787 N   0  0  0  0  0  0  0  0  0  0  0  0
   -1.6085   -0.3341    0.0810 O   0  0  0  0  0  1  0  0  0  0  0  0
   -0.2774    1.3534    2.1626 O   0  0  0  0  0  1  0  0  0  0  0  0
   -0.9800    3.1322    0.7464 C   0  0  0  0  0  0  0  0  0  0  0  0
   -2.0546    3.0571    1.0062 H   0  0  0  0  0  0  0  0  0  0  0  0
   -0.7987    4.1958    0.4632 H   0  0  0  0  0  0  0  0  0  0  0  0
   -0.1828    2.7593    2.0273 C   0  0  0  0  0  0  0  0  0  0  0  0
   -0.8538    3.4130    3.2434 C   0  0  0  0  0  0  0  0  0  0  0  0
   -0.3159    3.1301    4.1689 H   0  0  0  0  0  0  0  0  0  0  0  0
   -1.9031    3.0681    3.3355 H   0  0  0  0  0  0  0  0  0  0  0  0
   -0.8483    4.5190    3.1581 H   0  0  0  0  0  0  0  0  0  0  0  0
    1.3019    3.1554    1.9609 C   0  0  0  0  0  0  0  0  0  0  0  0
    1.7856    2.9342    2.9329 H   0  0  0  0  0  0  0  0  0  0  0  0
    1.4259    4.2368    1.7483 H   0  0  0  0  0  0  0  0  0  0  0  0
    1.8297    2.5619    1.1898 H   0  0  0  0  0  0  0  0  0  0  0  0
    0.3044    2.7815   -1.2795 C   0  0  0  0  0  0  0  0  0  0  0  0
   -0.0810    3.6477   -1.8720 H   0  0  0  0  0  0  0  0  0  0  0  0
    0.6867    2.0108   -1.9712 H   0  0  0  0  0  0  0  0  0  0  0  0
    1.1641    3.1332   -0.6836 H   0  0  0  0  0  0  0  0  0  0  0  0
   -1.9488    1.7544   -1.0430 C   0  0  2  0  0  0  0  0  0  0  0  0
   -2.6768    2.6002   -1.1262 H   0  0  0  0  0  0  0  0  0  0  0  0
   -2.5715    0.6640   -0.1116 C   0  0  1  0  0  0  0  0  0  0  0  0
   -2.8084    1.1565    0.8638 H   0  0  0  0  0  0  0  0  0  0  0  0
   -1.7134    1.1929   -2.4426 C   0  0  0  0  0  0  0  0  0  0  0  0
   -1.3415    1.9589   -3.1478 H   0  0  0  0  0  0  0  0  0  0  0  0
   -2.6684    0.8029   -2.8422 H   0  0  0  0  0  0  0  0  0  0  0  0
   -0.9919    0.3537   -2.4132 H   0  0  0  0  0  0  0  0  0  0  0  0
   -3.8797    0.1160   -0.6545 C   0  0  0  0  0  0  0  0  0  0  0  0
   -5.0331    0.9254   -0.6676 C   0  0  0  0  0  0  0  0  0  0  0  0
   -4.9887    1.9442   -0.2490 H   0  0  0  0  0  0  0  0  0  0  0  0
   -6.2389    0.4434   -1.1969 C   0  0  0  0  0  0  0  0  0  0  0  0
   -7.1322    1.0868   -1.1988 H   0  0  0  0  0  0  0  0  0  0  0  0
   -6.3099   -0.8609   -1.7140 C   0  0  0  0  0  0  0  0  0  0  0  0
   -7.2571   -1.2421   -2.1251 H   0  0  0  0  0  0  0  0  0  0  0  0
   -5.1678   -1.6763   -1.6942 C   0  0  0  0  0  0  0  0  0  0  0  0
   -5.2175   -2.7026   -2.0902 H   0  0  0  0  0  0  0  0  0  0  0  0
   -3.9605   -1.1902   -1.1687 C   0  0  0  0  0  0  0  0  0  0  0  0
   -3.0579   -1.8156   -1.1423 H   0  0  0  0  0  0  0  0  0  0  0  0
  1  4  1  0  0  0  0
  4  5  1  0  0  0  0
  4  7  1  0  0  0  0
  6  4  1  0  0  0  0
  7  3  1  0  0  0  0
  7  8  1  0  0  0  0
  8 10  1  0  0  0  0
  8  9  1  0  0  0  0
 11  8  1  0  0  0  0
 12  7  1  0  0  0  0
 12 13  1  0  0  0  0
 14 12  1  0  0  0  0
 15 12  1  0  0  0  0
 16 19  1  0  0  0  0
 16  1  1  0  0  0  0
 17 16  1  0  0  0  0
 18 16  1  0  0  0  0
 20 21  1  6  0  0  0
 20  1  1  0  0  0  0
 20 22  1  0  0  0  0
 22  2  1  0  0  0  0
 22 23  1  1  0  0  0
 24 27  1  0  0  0  0
 24 20  1  0  0  0  0
 25 24  1  0  0  0  0
 26 24  1  0  0  0  0
 28 22  1  0  0  0  0
 29 28  1  0  0  0  0
 29 30  1  0  0  0  0
 31 29  2  0  0  0  0
 32 31  1  0  0  0  0
 33 35  2  0  0  0  0
 33 31  1  0  0  0  0
 34 33  1  0  0  0  0
 35 37  1  0  0  0  0
 36 35  1  0  0  0  0
 37 38  1  0  0  0  0
 37 28  2  0  0  0  0
M  END
