1,2,3
q = -2.0, confidence = 0.794

 42 44  0  0  0  0  0  0  0  0999 V2000
    4.2810   -0.2783    0.0772 O   0  5  0  0  0  0  0  0  0  0  0  0
    0.8234   -1.5098   -0.2345 O   0  5  0  0  0  0  0  0  0  0  0  0
    1.8344    0.7422   -0.2337 N   0  0  0  0  0  2  0  0  0  0  0  0
    0.4770    0.7673   -0.1690 N   0  0  0  0  0  0  0  0  0  0  0  0
   -2.3372    0.2151   -0.0922 N   0  0  0  0  0  0  0  0  0  0  0  0
   -3.5230   -0.4347   -0.0718 N   0  0  0  0  0  0  0  0  0  0  0  0
   -5.8643   -0.3662   -0.0302 N   0  0  0  0  0  0  0  0  0  0  0  0
   -4.5793    1.6565    0.0454 N   0  0  0  0  0  0  0  0  0  0  0  0
    3.8848    2.0651   -0.2524 C   0  0  0  0  0  0  0  0  0  0  0  0
    4.7626    0.9447   -0.0850 C   0  0  0  0  0  0  0  0  0  0  0  0
    6.1598    1.1593   -0.0494 C   0  0  0  0  0  0  0  0  0  0  0  0
    6.8126    0.2848    0.0833 H   0  0  0  0  0  0  0  0  0  0  0  0
    6.6805    2.4501   -0.1820 C   0  0  0  0  0  0  0  0  0  0  0  0
    7.7714    2.5966   -0.1569 H   0  0  0  0  0  0  0  0  0  0  0  0
    5.8261    3.5600   -0.3469 C   0  0  0  0  0  0  0  0  0  0  0  0
    6.2437    4.5718   -0.4511 H   0  0  0  0  0  0  0  0  0  0  0  0
    4.4457    3.3622   -0.3755 C   0  0  0  0  0  0  0  0  0  0  0  0
    3.7633    4.2178   -0.5000 H   0  0  0  0  0  0  0  0  0  0  0  0
    2.4555    1.8994   -0.2461 C   0  0  0  0  0  3  0  0  0  0  0  0
    1.8126    2.7994   -0.2428 H   0  0  0  0  0  0  0  0  0  0  0  0
    0.0233   -0.4734   -0.1850 C   0  0  0  0  0  0  0  0  0  0  0  0
   -1.4173   -0.7533   -0.1455 C   0  0  0  0  0  0  0  0  0  0  0  0
   -2.0162   -2.0494   -0.1595 C   0  0  0  0  0  0  0  0  0  0  0  0
   -1.5038   -3.0152   -0.2005 H   0  0  0  0  0  0  0  0  0  0  0  0
   -3.3826   -1.8305   -0.1123 C   0  0  0  0  0  0  0  0  0  0  0  0
   -4.4797   -2.8429   -0.1032 C   0  0  0  0  0  0  0  0  0  0  0  0
   -4.0271   -3.8527   -0.1325 H   0  0  0  0  0  0  0  0  0  0  0  0
   -5.1606   -2.7247   -0.9678 H   0  0  0  0  0  0  0  0  0  0  0  0
   -5.1168   -2.7569    0.7980 H   0  0  0  0  0  0  0  0  0  0  0  0
   -4.7210    0.3298   -0.0155 C   0  0  0  0  0  0  0  0  0  0  0  0
   -7.0061    0.3458    0.0206 C   0  0  0  0  0  0  0  0  0  0  0  0
   -8.2913   -0.4341    0.0046 C   0  0  0  0  0  0  0  0  0  0  0  0
   -8.3185   -1.1380    0.8613 H   0  0  0  0  0  0  0  0  0  0  0  0
   -8.3478   -1.0529   -0.9140 H   0  0  0  0  0  0  0  0  0  0  0  0
   -9.1788    0.2237    0.0506 H   0  0  0  0  0  0  0  0  0  0  0  0
   -6.9748    1.7497    0.0841 C   0  0  0  0  0  0  0  0  0  0  0  0
   -7.9030    2.3374    0.1246 H   0  0  0  0  0  0  0  0  0  0  0  0
   -5.7123    2.3771    0.0946 C   0  0  0  0  0  0  0  0  0  0  0  0
   -5.5572    3.8705    0.1610 C   0  0  0  0  0  0  0  0  0  0  0  0
   -4.9532    4.1445    1.0496 H   0  0  0  0  0  0  0  0  0  0  0  0
   -6.5307    4.3930    0.2045 H   0  0  0  0  0  0  0  0  0  0  0  0
   -4.9889    4.2266   -0.7220 H   0  0  0  0  0  0  0  0  0  0  0  0
  2 21  1  0  0  0  0
  3  4  1  0  0  0  0
  5  6  1  0  0  0  0
  6 30  1  0  0  0  0
  7 30  2  0  0  0  0
  7 31  1  0  0  0  0
  8 38  2  0  0  0  0
  9 19  1  0  0  0  0
  9 10  1  0  0  0  0
 10 11  2  0  0  0  0
 10  1  1  0  0  0  0
 11 12  1  0  0  0  0
 13 14  1  0  0  0  0
 13 11  1  0  0  0  0
 15 13  2  0  0  0  0
 16 15  1  0  0  0  0
 17 15  1  0  0  0  0
 17  9  2  0  0  0  0
 18 17  1  0  0  0  0
 19 20  1  0  0  0  0
 19  3  1  0  0  0  0
 21  4  2  0  0  0  0
 21 22  1  0  0  0  0
 22  5  2  0  0  0  0
 23 22  1  0  0  0  0
 23 25  2  0  0  0  0
 24 23  1  0  0  0  0
 25 26  1  0  0  0  0
 25  6  1  0  0  0  0
 26 29  1  0  0  0  0
 27 26  1  0  0  0  0
 28 26  1  0  0  0  0
 30  8  1  0  0  0  0
 31 36  2  0  0  0  0
 32 31  1  0  0  0  0
 32 35  1  0  0  0  0
 32 33  1  0  0  0  0
 34 32  1  0  0  0  0
 36 38  1  0  0  0  0
 36 37  1  0  0  0  0
 38 39  1  0  0  0  0
 39 41  1  0  0  0  0
 39 40  1  0  0  0  0
 42 39  1  0  0  0  0
M  CHG  2   1  -1   2  -1
M  END
