2,4,5
q = -2.0, confidence = 0.808

 32 34  0  0  1  0  0  0  0  0999 V2000
   -2.5598   -0.0835    0.0115 N   0  0  0  0  0  0  0  0  0  0  0  0
   -1.4859    0.5969   -0.0834 N   0  0  0  0  0  2  0  0  0  0  0  0
   -3.8772    4.8407   -1.0034 N   0  0  0  0  0  0  0  0  0  0  0  0
   -0.1724   -1.8930    0.5027 O   0  5  0  0  0  0  0  0  0  0  0  0
    0.8441    1.9156   -0.2808 O   0  5  0  0  0  0  0  0  0  0  0  0
   -4.9509    4.2383   -0.9133 O   0  0  0  0  0  0  0  0  0  0  0  0
   -3.7665    6.0474   -1.2420 O   0  0  0  0  0  0  0  0  0  0  0  0
   -1.4227   -2.2636    0.5017 C   0  0  0  0  0  0  0  0  0  0  0  0
   -2.5801   -1.4180    0.2734 C   0  0  0  0  0  0  0  0  0  0  0  0
   -3.9188   -2.0089    0.3176 C   0  0  1  0  0  3  0  0  0  0  0  0
   -5.0841   -1.2276    0.1052 C   0  0  0  0  0  0  0  0  0  0  0  0
   -6.3511   -1.8041    0.1490 C   0  0  0  0  0  0  0  0  0  0  0  0
   -6.5079   -3.1863    0.4061 C   0  0  0  0  0  0  0  0  0  0  0  0
   -5.3823   -3.9743    0.6173 C   0  0  0  0  0  0  0  0  0  0  0  0
   -4.0793   -3.4091    0.5783 C   0  0  0  0  0  0  0  0  0  0  0  0
   -2.9093   -4.2082    0.7934 C   0  0  0  0  0  0  0  0  0  0  0  0
   -1.6487   -3.6630    0.7578 C   0  0  0  0  0  0  0  0  0  0  0  0
   -0.2591    2.6124   -0.4515 C   0  0  0  0  0  0  0  0  0  0  0  0
   -1.5477    1.9778   -0.3610 C   0  0  0  0  0  0  0  0  0  0  0  0
   -2.7342    2.7026   -0.5416 C   0  0  0  0  0  0  0  0  0  0  0  0
   -2.6410    4.0690   -0.8136 C   0  0  0  0  0  0  0  0  0  0  0  0
   -1.3942    4.7283   -0.9100 C   0  0  0  0  0  0  0  0  0  0  0  0
   -0.2188    4.0083   -0.7318 C   0  0  0  0  0  0  0  0  0  0  0  0
   -4.9647   -0.1548   -0.0952 H   0  0  0  0  0  0  0  0  0  0  0  0
   -7.2380   -1.1743   -0.0188 H   0  0  0  0  0  0  0  0  0  0  0  0
   -7.5131   -3.6325    0.4384 H   0  0  0  0  0  0  0  0  0  0  0  0
   -5.4824   -5.0523    0.8189 H   0  0  0  0  0  0  0  0  0  0  0  0
   -3.0357   -5.2844    0.9914 H   0  0  0  0  0  0  0  0  0  0  0  0
   -0.7510   -4.2765    0.9236 H   0  0  0  0  0  0  0  0  0  0  0  0
   -3.7158    2.2189   -0.4727 H   0  0  0  0  0  0  0  0  0  0  0  0
   -1.3894    5.8049   -1.1258 H   0  0  0  0  0  0  0  0  0  0  0  0
    0.7656    4.4927   -0.8010 H   0  0  0  0  0  0  0  0  0  0  0  0
  1  9  2  0  0  0  0
  2  1  1  0  0  0  0
  3  6  2  0  0  0  0
  3 21  1  0  0  0  0
  7  3  2  0  0  0  0
  8  4  1  0  0  0  0
  8 17  2  0  0  0  0
  9 10  1  0  0  0  0
  9  8  1  0  0  0  0
 10 11  1  6  0  0  0
 10 15  1  0  0  0  0
 11 12  2  0  0  0  0
 12 13  1  0  0  0  0
 13 26  1  0  0  0  0
 13 14  2  0  0  0  0
 14 27  1  0  0  0  0
 15 14  1  0  0  0  0
 15 16  2  0  0  0  0
 16 28  1  0  0  0  0
 17 16  1  0  0  0  0
 17 29  1  0  0  0  0
 18 19  1  0  0  0  0
 18  5  1  0  0  0  0
 19  2  1  0  0  0  0
 20 30  1  0  0  0  0
 20 19  2  0  0  0  0
 21 20  1  0  0  0  0
 22 21  2  0  0  0  0
 22 23  1  0  0  0  0
 23 18  2  0  0  0  0
 24 11  1  0  0  0  0
 25 12  1  0  0  0  0
 31 22  1  0  0  0  0
 32 23  1  0  0  0  0
M  CHG  2   4  -1   5  -1
M  END
