21,23,33
q = -2.0, confidence = 0.89

 39 41  0  0  0  0  0  0  0  0999 V2000
    4.0203    2.2906    0.5793 Br  0  0  0  0  0  0  0  0  0  0  0  0
    5.6739   -3.1035   -0.3294 Br  0  0  0  0  0  0  0  0  0  0  0  0
   -4.0685   -0.8048   -0.3001 C   0  0  0  0  0  0  0  0  0  0  0  0
   -5.0294    0.1823   -0.5395 C   0  0  0  0  0  0  0  0  0  0  0  0
   -4.6809    1.1962   -0.7870 H   0  0  0  0  0  0  0  0  0  0  0  0
   -6.4151   -0.0940   -0.4728 C   0  0  0  0  0  0  0  0  0  0  0  0
   -7.4044    0.9059   -0.7193 C   0  0  0  0  0  0  0  0  0  0  0  0
   -7.0709    1.9248   -0.9715 H   0  0  0  0  0  0  0  0  0  0  0  0
   -8.7537    0.6027   -0.6440 C   0  0  0  0  0  0  0  0  0  0  0  0
   -9.5089    1.3795   -0.8358 H   0  0  0  0  0  0  0  0  0  0  0  0
   -9.1670   -0.7207   -0.3180 C   0  0  0  0  0  0  0  0  0  0  0  0
  -10.2415   -0.9536   -0.2608 H   0  0  0  0  0  0  0  0  0  0  0  0
   -8.2335   -1.7156   -0.0736 C   0  0  0  0  0  0  0  0  0  0  0  0
   -8.5592   -2.7370    0.1771 H   0  0  0  0  0  0  0  0  0  0  0  0
   -6.8333   -1.4403   -0.1418 C   0  0  0  0  0  0  0  0  0  0  0  0
   -5.8526   -2.4342    0.1027 C   0  0  0  0  0  0  0  0  0  0  0  0
   -6.1559   -3.4599    0.3585 H   0  0  0  0  0  0  0  0  0  0  0  0
   -4.4864   -2.1542    0.0300 C   0  0  0  0  0  0  0  0  0  0  0  0
   -3.6003   -3.1263    0.2867 O   0  0  0  0  0  0  0  0  0  0  0  0
   -2.6480   -0.4498   -0.3541 C   0  0  0  0  0  0  0  0  0  0  0  0
   -2.2924    0.7956   -0.4996 O   0  5  0  0  0  0  0  0  0  0  0  0
   -1.7371   -1.4151   -0.2000 N   0  0  0  0  0  0  0  0  0  0  0  0
   -0.4837   -0.8976   -0.2153 N   0  0  0  0  0  2  0  0  0  0  0  0
    0.5377   -1.7125   -0.1574 C   0  0  0  0  0  3  0  0  0  0  0  0
    0.3355   -2.8007   -0.1526 H   0  0  0  0  0  0  0  0  0  0  0  0
    1.9078   -1.2645   -0.1022 C   0  0  0  0  0  0  0  0  0  0  0  0
    2.2237    0.1126    0.1458 C   0  0  0  0  0  0  0  0  0  0  0  0
    3.5934    0.4789    0.2307 C   0  0  0  0  0  0  0  0  0  0  0  0
    4.6351   -0.4630    0.0921 C   0  0  0  0  0  0  0  0  0  0  0  0
    4.2865   -1.8196   -0.1482 C   0  0  0  0  0  0  0  0  0  0  0  0
    2.9527   -2.2113   -0.2299 C   0  0  0  0  0  0  0  0  0  0  0  0
    2.7056   -3.2680   -0.4063 H   0  0  0  0  0  0  0  0  0  0  0  0
    1.2884    1.0207    0.3468 O   0  5  0  0  0  0  0  0  0  0  0  0
    5.9313   -0.0902    0.2308 O   0  0  0  0  0  0  0  0  0  0  0  0
    6.5927    0.3203   -0.9710 C   0  0  0  0  0  0  0  0  0  0  0  0
    6.6204   -0.5060   -1.7135 H   0  0  0  0  0  0  0  0  0  0  0  0
    7.6262    0.5864   -0.6826 H   0  0  0  0  0  0  0  0  0  0  0  0
    6.0957    1.2090   -1.4160 H   0  0  0  0  0  0  0  0  0  0  0  0
   -2.6787   -2.7297    0.1342 H   0  0  0  0  0  0  0  0  0  0  0  0
  2 30  1  0  0  0  0
  3 18  1  0  0  0  0
  4  6  1  0  0  0  0
  4  3  2  0  0  0  0
  5  4  1  0  0  0  0
  6 15  1  0  0  0  0
  7  9  1  0  0  0  0
  7  6  2  0  0  0  0
  8  7  1  0  0  0  0
  9 11  2  0  0  0  0
 10  9  1  0  0  0  0
 11 12  1  0  0  0  0
 11 13  1  0  0  0  0
 13 14  1  0  0  0  0
 15 13  2  0  0  0  0
 15 16  1  0  0  0  0
 16 17  1  0  0  0  0
 18 16  2  0  0  0  0
 18 19  1  0  0  0  0
 20  3  1  0  0  0  0
 20 22  2  0  0  0  0
 21 20  1  0  0  0  0
 23 22  1  0  0  0  0
 23 24  1  0  0  0  0
 24 25  1  0  0  0  0
 24 26  1  0  0  0  0
 26 27  1  0  0  0  0
 27 28  2  0  0  0  0
 27 33  1  0  0  0  0
 28  1  1  0  0  0  0
 29 28  1  0  0  0  0
 29 34  1  0  0  0  0
 30 29  2  0  0  0  0
 31 30  1  0  0  0  0
 31 26  2  0  0  0  0
 32 31  1  0  0  0  0
 35 37  1  0  0  0  0
 35 34  1  0  0  0  0
 36 35  1  0  0  0  0
 38 35  1  0  0  0  0
 39 19  1  0  0  0  0
M  CHG  2  21  -1  33  -1
M  END
