1,2,19
q = -1.0, confidence = 0.0

 33 33  0  0  1  0  0  0  0  0999 V2000
    1.4415   -2.0857   -0.2026 S   0  0  0  0  0  0  0  0  0  0  0  0
    0.4057    1.0622    0.6436 N   0  0  0  0  0  2  0  0  0  0  0  0
    1.9910    2.3574   -1.2336 O   0  0  0  0  0  0  0  0  0  0  0  0
    1.0657   -3.2771    1.1265 C   0  0  0  0  0  0  0  0  0  0  0  0
    0.1182   -3.7515    0.8063 H   0  0  0  0  0  0  0  0  0  0  0  0
    0.9060   -2.7600    2.0913 H   0  0  0  0  0  0  0  0  0  0  0  0
    1.8782   -4.0258    1.1988 H   0  0  0  0  0  0  0  0  0  0  0  0
    2.8458   -1.1673    0.5354 C   0  0  0  0  0  0  0  0  0  0  0  0
    3.4949   -1.9204    1.0262 H   0  0  0  0  0  0  0  0  0  0  0  0
    3.4179   -0.7675   -0.3248 H   0  0  0  0  0  0  0  0  0  0  0  0
    2.4907   -0.0487    1.5149 C   0  0  0  0  0  0  0  0  0  0  0  0
    3.4347    0.2786    1.9959 H   0  0  0  0  0  0  0  0  0  0  0  0
    1.8331   -0.4306    2.3232 H   0  0  0  0  0  0  0  0  0  0  0  0
    1.8260    1.2113    0.9245 C   0  0  1  0  0  0  0  0  0  0  0  0
    1.9385    2.0100    1.6953 H   0  0  0  0  0  0  0  0  0  0  0  0
   -0.3844    2.1023    0.8066 C   0  0  0  0  0  0  0  0  0  0  0  0
    0.0258    3.0538    1.1924 H   0  0  0  0  0  0  0  0  0  0  0  0
   -1.7698    1.9283    0.4743 C   0  0  0  0  0  0  0  0  0  0  0  0
   -2.0836    0.6149   -0.0054 C   0  0  0  0  0  2  0  0  0  0  0  0
   -3.4197    0.3426   -0.3467 C   0  0  0  0  0  0  0  0  0  0  0  0
   -3.6862   -0.6590   -0.7155 H   0  0  0  0  0  0  0  0  0  0  0  0
   -4.4002    1.3426   -0.2169 C   0  0  0  0  0  0  0  0  0  0  0  0
   -5.4424    1.1123   -0.4906 H   0  0  0  0  0  0  0  0  0  0  0  0
   -4.0796    2.6323    0.2541 C   0  0  0  0  0  0  0  0  0  0  0  0
   -4.8638    3.3985    0.3453 H   0  0  0  0  0  0  0  0  0  0  0  0
   -2.7592    2.9295    0.6027 C   0  0  0  0  0  0  0  0  0  0  0  0
   -2.4857    3.9310    0.9715 H   0  0  0  0  0  0  0  0  0  0  0  0
    2.5402    1.7961   -0.3121 C   0  0  0  0  0  0  0  0  0  0  0  0
    3.8846    1.6644   -0.1926 O   0  0  0  0  0  0  0  0  0  0  0  0
    4.6525    2.2511   -1.2568 C   0  0  0  0  0  0  0  0  0  0  0  0
    5.7120    2.0726   -1.0028 H   0  0  0  0  0  0  0  0  0  0  0  0
    4.4469    3.3372   -1.3338 H   0  0  0  0  0  0  0  0  0  0  0  0
    4.3988    1.7788   -2.2267 H   0  0  0  0  0  0  0  0  0  0  0  0
  1  8  1  0  0  0  0
  1  4  1  0  0  0  0
  2 16  1  0  0  0  0
  2 14  1  0  0  0  0
  3 28  2  0  0  0  0
  4  7  1  0  0  0  0
  4  6  1  0  0  0  0
  5  4  1  0  0  0  0
  8  9  1  0  0  0  0
  8 11  1  0  0  0  0
 10  8  1  0  0  0  0
 11 12  1  0  0  0  0
 11 13  1  0  0  0  0
 14 11  1  0  0  0  0
 14 15  1  1  0  0  0
 16 17  1  0  0  0  0
 18 26  1  0  0  0  0
 18 16  2  0  0  0  0
 19 18  1  0  0  0  0
 20 22  2  0  0  0  0
 20 19  1  0  0  0  0
 21 20  1  0  0  0  0
 22 24  1  0  0  0  0
 23 22  1  0  0  0  0
 24 25  1  0  0  0  0
 24 26  2  0  0  0  0
 26 27  1  0  0  0  0
 28 29  1  0  0  0  0
 28 14  1  0  0  0  0
 30 31  1  0  0  0  0
 30 29  1  0  0  0  0
 32 30  1  0  0  0  0
 33 30  1  0  0  0  0
M  END
