2,9,14
q = -1.0

 35 34  0  0  1  0  0  0  0  0999 V2000
   -3.5988   -2.3207    0.2998 Cl  0  0  0  0  0  0  0  0  0  0  0  0
    1.6980   -0.8175   -0.7765 S   0  0  0  0  0  0  0  0  0  0  0  0
    0.9823   -2.4392   -0.2315 C   0  0  0  0  0  0  0  0  0  0  0  0
    1.5752   -3.2574   -0.6845 H   0  0  0  0  0  0  0  0  0  0  0  0
    1.0644   -2.4902    0.8726 H   0  0  0  0  0  0  0  0  0  0  0  0
   -0.4823   -2.4413   -0.6634 C   0  0  0  0  0  0  0  0  0  0  0  0
   -0.5408   -2.5209   -1.7727 H   0  0  0  0  0  0  0  0  0  0  0  0
   -1.0058   -3.3333   -0.2545 H   0  0  0  0  0  0  0  0  0  0  0  0
   -1.1434   -1.1639   -0.2172 C   0  0  0  0  0  2  0  0  0  0  0  0
   -2.4221   -1.0027    0.1831 C   0  0  2  0  0  3  0  0  0  0  0  0
   -2.9235    0.3299    0.6590 C   0  0  0  0  0  0  0  0  0  0  0  0
   -3.9643    0.5356    0.3195 H   0  0  0  0  0  0  0  0  0  0  0  0
   -2.9431    0.3496    1.7699 H   0  0  0  0  0  0  0  0  0  0  0  0
   -2.0010    1.4133    0.1907 N   0  0  0  0  0  0  0  0  0  0  0  0
   -2.4386    1.9499   -1.1194 C   0  0  0  0  0  0  0  0  0  0  0  0
   -3.4200    2.4684   -1.0162 H   0  0  0  0  0  0  0  0  0  0  0  0
   -2.5337    1.1191   -1.8422 H   0  0  0  0  0  0  0  0  0  0  0  0
   -1.6737    2.6613   -1.4829 H   0  0  0  0  0  0  0  0  0  0  0  0
   -1.9186    2.5046    1.1841 C   0  0  0  0  0  0  0  0  0  0  0  0
   -2.9150    2.9858    1.3132 H   0  0  0  0  0  0  0  0  0  0  0  0
   -1.1677    3.2397    0.8386 H   0  0  0  0  0  0  0  0  0  0  0  0
   -1.5792    2.0922    2.1524 H   0  0  0  0  0  0  0  0  0  0  0  0
    3.1584   -0.5515    0.4007 C   0  0  0  0  0  0  0  0  0  0  0  0
    2.6512   -0.1505    1.7863 C   0  0  0  0  0  0  0  0  0  0  0  0
    1.9846   -0.9202    2.2253 H   0  0  0  0  0  0  0  0  0  0  0  0
    2.1014    0.8098    1.7280 H   0  0  0  0  0  0  0  0  0  0  0  0
    3.5183   -0.0257    2.4691 H   0  0  0  0  0  0  0  0  0  0  0  0
    3.9747   -1.8484    0.4318 C   0  0  0  0  0  0  0  0  0  0  0  0
    4.9145   -1.6600    0.9913 H   0  0  0  0  0  0  0  0  0  0  0  0
    4.2519   -2.1828   -0.5883 H   0  0  0  0  0  0  0  0  0  0  0  0
    3.4443   -2.6732    0.9467 H   0  0  0  0  0  0  0  0  0  0  0  0
    3.9558    0.5856   -0.2501 C   0  0  0  0  0  0  0  0  0  0  0  0
    3.3288    1.4952   -0.3526 H   0  0  0  0  0  0  0  0  0  0  0  0
    4.3373    0.2909   -1.2480 H   0  0  0  0  0  0  0  0  0  0  0  0
    4.8252    0.8275    0.3962 H   0  0  0  0  0  0  0  0  0  0  0  0
  2  3  1  0  0  0  0
  2 23  1  0  0  0  0
  3  5  1  0  0  0  0
  4  3  1  0  0  0  0
  6  8  1  0  0  0  0
  6  3  1  0  0  0  0
  6  9  1  0  0  0  0
  7  6  1  0  0  0  0
  9 10  1  0  0  0  0
 10  1  1  1  0  0  0
 10 11  1  0  0  0  0
 11 13  1  0  0  0  0
 12 11  1  0  0  0  0
 14 11  1  0  0  0  0
 14 19  1  0  0  0  0
 15 16  1  0  0  0  0
 15 14  1  0  0  0  0
 17 15  1  0  0  0  0
 18 15  1  0  0  0  0
 19 20  1  0  0  0  0
 19 22  1  0  0  0  0
 21 19  1  0  0  0  0
 23 28  1  0  0  0  0
 23 24  1  0  0  0  0
 24 25  1  0  0  0  0
 24 27  1  0  0  0  0
 26 24  1  0  0  0  0
 28 31  1  0  0  0  0
 28 29  1  0  0  0  0
 30 28  1  0  0  0  0
 32 35  1  0  0  0  0
 32 23  1  0  0  0  0
 33 32  1  0  0  0  0
 34 32  1  0  0  0  0
M  END
