1,5,6
q = -2.0, confidence = 0.924

 57 59  0  0  1  0  0  0  0  0999 V2000
   -0.0656   -2.2629    0.1852 S   0  0  0  0  0  1  0  0  0  0  0  0
   -2.4919   -2.6182   -3.4959 O   0  0  0  0  0  0  0  0  0  0  0  0
   -1.2586    0.4165    2.5835 O   0  0  0  0  0  0  0  0  0  0  0  0
   -2.7365   -1.1200    1.8310 O   0  0  0  0  0  0  0  0  0  0  0  0
   -0.1596    0.7308    0.1326 N   0  0  0  0  0  2  0  0  0  0  0  0
    2.4205    1.3438    0.1682 C   0  0  0  0  0  2  0  0  0  0  0  0
    3.7763    1.7222    0.1744 C   0  0  0  0  0  0  0  0  0  0  0  0
    4.5665    0.9585    0.2444 H   0  0  0  0  0  0  0  0  0  0  0  0
    4.1797    3.0687    0.0904 C   0  0  0  0  0  0  0  0  0  0  0  0
    5.2536    3.3155    0.0948 H   0  0  0  0  0  0  0  0  0  0  0  0
    3.2273    4.0970    0.0073 C   0  0  0  0  0  0  0  0  0  0  0  0
    3.5442    5.1492   -0.0458 H   0  0  0  0  0  0  0  0  0  0  0  0
    1.8668    3.7679   -0.0009 C   0  0  0  0  0  0  0  0  0  0  0  0
    1.1061    4.5619   -0.0501 H   0  0  0  0  0  0  0  0  0  0  0  0
    1.4626    2.4161    0.0640 C   0  0  0  0  0  0  0  0  0  0  0  0
    0.0503    2.0216    0.0658 C   0  0  0  0  0  0  0  0  0  0  0  0
   -1.0556    3.0168   -0.0156 C   0  0  0  0  0  0  0  0  0  0  0  0
   -1.9363    3.2092    1.0705 C   0  0  0  0  0  0  0  0  0  0  0  0
   -1.7868    2.6196    1.9868 H   0  0  0  0  0  0  0  0  0  0  0  0
   -2.9754    4.1460    0.9733 C   0  0  0  0  0  0  0  0  0  0  0  0
   -3.6545    4.2944    1.8267 H   0  0  0  0  0  0  0  0  0  0  0  0
   -3.1499    4.8933   -0.2025 C   0  0  0  0  0  0  0  0  0  0  0  0
   -3.9693    5.6245   -0.2757 H   0  0  0  0  0  0  0  0  0  0  0  0
   -2.2737    4.7088   -1.2839 C   0  0  0  0  0  0  0  0  0  0  0  0
   -2.4051    5.2920   -2.2079 H   0  0  0  0  0  0  0  0  0  0  0  0
   -1.2262    3.7813   -1.1903 C   0  0  0  0  0  0  0  0  0  0  0  0
   -0.5373    3.6366   -2.0360 H   0  0  0  0  0  0  0  0  0  0  0  0
   -1.4561    0.0712    0.1763 C   0  0  1  0  0  0  0  0  0  0  0  0
   -2.2505    0.7526   -0.2019 H   0  0  0  0  0  0  0  0  0  0  0  0
   -1.3393   -1.2162   -0.6717 C   0  0  0  0  0  0  0  0  0  0  0  0
   -2.6661   -2.0231   -1.0538 C   0  0  0  0  0  0  0  0  0  0  0  0
   -2.1613   -2.0046   -2.5046 C   0  0  0  0  0  0  0  0  0  0  0  0
   -1.0415   -0.9873   -2.2379 C   0  0  0  0  0  0  0  0  0  0  0  0
   -2.8620   -3.4242   -0.4787 C   0  0  0  0  0  0  0  0  0  0  0  0
   -3.6393   -3.9527   -1.0668 H   0  0  0  0  0  0  0  0  0  0  0  0
   -3.1815   -3.3714    0.5793 H   0  0  0  0  0  0  0  0  0  0  0  0
   -1.9245   -4.0100   -0.5273 H   0  0  0  0  0  0  0  0  0  0  0  0
   -3.9827   -1.2236   -0.9753 C   0  0  0  0  0  0  0  0  0  0  0  0
   -4.2992   -1.1017    0.0772 H   0  0  0  0  0  0  0  0  0  0  0  0
   -4.7703   -1.7779   -1.5245 H   0  0  0  0  0  0  0  0  0  0  0  0
   -3.9095   -0.2196   -1.4368 H   0  0  0  0  0  0  0  0  0  0  0  0
    0.3108   -1.4186   -2.8055 C   0  0  0  0  0  0  0  0  0  0  0  0
    1.1059   -0.7041   -2.5017 H   0  0  0  0  0  0  0  0  0  0  0  0
    0.2472   -1.4450   -3.9124 H   0  0  0  0  0  0  0  0  0  0  0  0
    0.5962   -2.4206   -2.4353 H   0  0  0  0  0  0  0  0  0  0  0  0
   -1.3981    0.4025   -2.7977 C   0  0  0  0  0  0  0  0  0  0  0  0
   -0.5887    1.1255   -2.5767 H   0  0  0  0  0  0  0  0  0  0  0  0
   -2.3448    0.8155   -2.4008 H   0  0  0  0  0  0  0  0  0  0  0  0
   -1.5028    0.3338   -3.8992 H   0  0  0  0  0  0  0  0  0  0  0  0
   -1.7727   -0.1961    1.6651 C   0  0  0  0  0  0  0  0  0  0  0  0
   -3.0362   -1.4859    3.1967 C   0  0  0  0  0  0  0  0  0  0  0  0
   -2.1902   -2.1006    3.5718 H   0  0  0  0  0  0  0  0  0  0  0  0
   -3.0727   -0.5651    3.8140 H   0  0  0  0  0  0  0  0  0  0  0  0
   -4.3448   -2.2480    3.2122 C   0  0  0  0  0  0  0  0  0  0  0  0
   -4.5903   -2.5491    4.2500 H   0  0  0  0  0  0  0  0  0  0  0  0
   -4.2875   -3.1651    2.5931 H   0  0  0  0  0  0  0  0  0  0  0  0
   -5.1765   -1.6231    2.8296 H   0  0  0  0  0  0  0  0  0  0  0  0
  2 32  2  0  0  0  0
  4 51  1  0  0  0  0
  5 28  1  0  0  0  0
  6  7  1  0  0  0  0
  7  8  1  0  0  0  0
  9 10  1  0  0  0  0
  9  7  2  0  0  0  0
 11  9  1  0  0  0  0
 12 11  1  0  0  0  0
 13 11  2  0  0  0  0
 13 15  1  0  0  0  0
 14 13  1  0  0  0  0
 15 16  2  0  0  0  0
 15  6  1  0  0  0  0
 16  5  1  0  0  0  0
 17 16  1  0  0  0  0
 17 18  1  0  0  0  0
 18 19  1  0  0  0  0
 20 18  2  0  0  0  0
 20 21  1  0  0  0  0
 22 20  1  0  0  0  0
 23 22  1  0  0  0  0
 24 26  1  0  0  0  0
 24 22  2  0  0  0  0
 25 24  1  0  0  0  0
 26 17  2  0  0  0  0
 27 26  1  0  0  0  0
 28 29  1  6  0  0  0
 28 50  1  0  0  0  0
 30 28  1  0  0  0  0
 30  1  1  0  0  0  0
 31 38  1  0  0  0  0
 31 30  1  0  0  0  0
 31 34  1  0  0  0  0
 32 33  1  0  0  0  0
 32 31  1  0  0  0  0
 33 30  1  0  0  0  0
 34 36  1  0  0  0  0
 35 34  1  0  0  0  0
 37 34  1  0  0  0  0
 38 39  1  0  0  0  0
 40 38  1  0  0  0  0
 41 38  1  0  0  0  0
 42 43  1  0  0  0  0
 42 45  1  0  0  0  0
 42 33  1  0  0  0  0
 44 42  1  0  0  0  0
 46 47  1  0  0  0  0
 46 48  1  0  0  0  0
 46 33  1  0  0  0  0
 49 46  1  0  0  0  0
 50  4  1  0  0  0  0
 50  3  2  0  0  0  0
 51 54  1  0  0  0  0
 51 52  1  0  0  0  0
 51 53  1  0  0  0  0
 54 55  1  0  0  0  0
 56 54  1  0  0  0  0
 57 54  1  0  0  0  0
M  END
