2,3,6
q = -1.0, confidence = 0.0

 33 33  0  0  0  0  0  0  0  0999 V2000
    2.9291    2.8990    0.1304 Cl  0  0  0  0  0  0  0  0  0  0  0  0
   -2.1416    0.6492   -0.6878 S   0  0  0  0  0  0  0  0  0  0  0  0
    0.6407    1.3967   -0.2254 C   0  0  0  0  0  2  0  0  0  0  0  0
    1.9868    1.4145   -0.0001 C   0  0  0  0  0  0  0  0  0  0  0  0
    2.6831    0.1407    0.1251 C   0  0  0  0  0  0  0  0  0  0  0  0
    1.8466   -0.9403    0.0063 N   0  0  0  0  0  2  0  0  0  0  0  0
   -0.2460    2.5932   -0.4252 C   0  0  0  0  0  0  0  0  0  0  0  0
    0.1522    3.4878    0.1023 H   0  0  0  0  0  0  0  0  0  0  0  0
   -0.2489    2.8506   -1.5096 H   0  0  0  0  0  0  0  0  0  0  0  0
   -1.6699    2.2898    0.0348 C   0  0  0  0  0  0  0  0  0  0  0  0
   -2.4042    3.0484   -0.2985 H   0  0  0  0  0  0  0  0  0  0  0  0
   -1.7136    2.1961    1.1379 H   0  0  0  0  0  0  0  0  0  0  0  0
   -3.5201    0.0386    0.4593 C   0  0  0  0  0  0  0  0  0  0  0  0
   -2.9413   -0.3878    1.8083 C   0  0  0  0  0  0  0  0  0  0  0  0
   -3.7710   -0.7147    2.4703 H   0  0  0  0  0  0  0  0  0  0  0  0
   -2.4143    0.4434    2.3191 H   0  0  0  0  0  0  0  0  0  0  0  0
   -2.2387   -1.2340    1.6748 H   0  0  0  0  0  0  0  0  0  0  0  0
   -4.5407    1.1742    0.5960 C   0  0  0  0  0  0  0  0  0  0  0  0
   -4.8793    1.5429   -0.3933 H   0  0  0  0  0  0  0  0  0  0  0  0
   -4.1501    2.0289    1.1824 H   0  0  0  0  0  0  0  0  0  0  0  0
   -5.4303    0.7849    1.1334 H   0  0  0  0  0  0  0  0  0  0  0  0
   -4.1209   -1.1557   -0.2928 C   0  0  0  0  0  0  0  0  0  0  0  0
   -4.9382   -1.5883    0.3211 H   0  0  0  0  0  0  0  0  0  0  0  0
   -3.3536   -1.9395   -0.4582 H   0  0  0  0  0  0  0  0  0  0  0  0
   -4.5469   -0.8463   -1.2680 H   0  0  0  0  0  0  0  0  0  0  0  0
    4.0605   -0.0493    0.3417 C   0  0  0  0  0  0  0  0  0  0  0  0
    4.7078    0.8337    0.4296 H   0  0  0  0  0  0  0  0  0  0  0  0
    4.5622   -1.3522    0.4368 C   0  0  0  0  0  0  0  0  0  0  0  0
    5.6371   -1.5164    0.6068 H   0  0  0  0  0  0  0  0  0  0  0  0
    3.6866   -2.4433    0.3138 C   0  0  0  0  0  0  0  0  0  0  0  0
    4.0437   -3.4800    0.3842 H   0  0  0  0  0  0  0  0  0  0  0  0
    2.3253   -2.1930    0.0968 C   0  0  0  0  0  0  0  0  0  0  0  0
    1.5653   -2.9865   -0.0056 H   0  0  0  0  0  0  0  0  0  0  0  0
  2 10  1  0  0  0  0
  2 13  1  0  0  0  0
  3  4  1  0  0  0  0
  4  5  2  0  0  0  0
  4  1  1  0  0  0  0
  5 26  1  0  0  0  0
  6 32  1  0  0  0  0
  6  5  1  0  0  0  0
  7  3  1  0  0  0  0
  7 10  1  0  0  0  0
  7  8  1  0  0  0  0
  9  7  1  0  0  0  0
 10 12  1  0  0  0  0
 11 10  1  0  0  0  0
 13 18  1  0  0  0  0
 13 14  1  0  0  0  0
 14 16  1  0  0  0  0
 14 15  1  0  0  0  0
 17 14  1  0  0  0  0
 18 21  1  0  0  0  0
 18 20  1  0  0  0  0
 19 18  1  0  0  0  0
 22 23  1  0  0  0  0
 22 13  1  0  0  0  0
 24 22  1  0  0  0  0
 25 22  1  0  0  0  0
 26 27  1  0  0  0  0
 26 28  2  0  0  0  0
 28 29  1  0  0  0  0
 30 31  1  0  0  0  0
 30 28  1  0  0  0  0
 32 30  2  0  0  0  0
 33 32  1  0  0  0  0
M  END
