1,2,4
q = -1.0, confidence = 0.0

 25 25  0  0  0  0  0  0  0  0999 V2000
    0.8994   -2.8430   -0.2561 S   0  0  0  0  0  0  0  0  0  0  0  0
    2.8667   -0.5986   -0.1286 N   0  0  0  0  0  2  0  0  0  0  0  0
    3.4564   -1.8590   -0.0551 O   0  0  0  0  0  0  0  0  0  0  0  0
    1.4085    1.5534   -0.0079 C   0  0  0  0  0  2  0  0  0  0  0  0
    2.8340    1.6943    0.0336 C   0  0  0  0  0  0  0  0  0  0  0  0
    3.4170    2.9759    0.1175 C   0  0  0  0  0  0  0  0  0  0  0  0
    4.5112    3.0833    0.1602 H   0  0  0  0  0  0  0  0  0  0  0  0
    2.6026    4.1158    0.1529 C   0  0  0  0  0  0  0  0  0  0  0  0
    3.0582    5.1144    0.2161 H   0  0  0  0  0  0  0  0  0  0  0  0
    1.2082    3.9763    0.1086 C   0  0  0  0  0  0  0  0  0  0  0  0
    0.5666    4.8704    0.1318 H   0  0  0  0  0  0  0  0  0  0  0  0
    0.6111    2.6997    0.0340 C   0  0  0  0  0  0  0  0  0  0  0  0
   -0.4837    2.6232    0.0052 H   0  0  0  0  0  0  0  0  0  0  0  0
    3.6286    0.4640   -0.0055 C   0  0  0  0  0  0  0  0  0  0  0  0
    5.1134    0.4050    0.1020 C   0  0  0  0  0  0  0  0  0  0  0  0
    5.4303    0.7155    1.1196 H   0  0  0  0  0  0  0  0  0  0  0  0
    5.5761    1.1155   -0.6110 H   0  0  0  0  0  0  0  0  0  0  0  0
    5.4943   -0.6121   -0.0916 H   0  0  0  0  0  0  0  0  0  0  0  0
    2.6867   -2.7954   -0.7713 C   0  0  0  0  0  0  0  0  0  0  0  0
    3.1527   -3.7802   -0.5783 H   0  0  0  0  0  0  0  0  0  0  0  0
    2.6578   -2.5781   -1.8607 H   0  0  0  0  0  0  0  0  0  0  0  0
    1.0771   -3.3723    1.4827 C   0  0  0  0  0  0  0  0  0  0  0  0
    1.3409   -4.4467    1.5105 H   0  0  0  0  0  0  0  0  0  0  0  0
    0.0933   -3.2200    1.9642 H   0  0  0  0  0  0  0  0  0  0  0  0
    1.8428   -2.7620    1.9960 H   0  0  0  0  0  0  0  0  0  0  0  0
  1 22  1  0  0  0  0
  2  3  1  0  0  0  0
  2 14  1  0  0  0  0
  4  5  1  0  0  0  0
  4 12  1  0  0  0  0
  5  6  1  0  0  0  0
  6  8  2  0  0  0  0
  6  7  1  0  0  0  0
  8  9  1  0  0  0  0
 10 11  1  0  0  0  0
 10  8  1  0  0  0  0
 12 10  2  0  0  0  0
 13 12  1  0  0  0  0
 14  5  2  0  0  0  0
 14 15  1  0  0  0  0
 15 16  1  0  0  0  0
 17 15  1  0  0  0  0
 18 15  1  0  0  0  0
 19 20  1  0  0  0  0
 19  1  1  0  0  0  0
 19  3  1  0  0  0  0
 21 19  1  0  0  0  0
 22 23  1  0  0  0  0
 22 24  1  0  0  0  0
 22 25  1  0  0  0  0
M  END
