2,4,6
q = -1.0, confidence = 0.024

 50 52  0  0  0  0  0  0  0  0999 V2000
    1.8742    0.0498   -0.2586 P   0  0  0  0  0  4  0  0  0  0  0  0
    0.8483   -0.7604   -1.7652 S   0  0  0  0  0  1  0  0  0  0  0  0
    1.6989    1.6864   -0.1049 O   0  0  0  0  0  0  0  0  0  0  0  0
   -3.1369    0.3303   -0.0864 N   0  0  0  0  0  2  0  0  0  0  0  0
    0.4439    2.2844    0.0437 C   0  0  0  0  0  0  0  0  0  0  0  0
   -0.7731    1.5987   -0.1285 C   0  0  0  0  0  2  0  0  0  0  0  0
   -1.9426    2.3577    0.1929 C   0  0  0  0  0  0  0  0  0  0  0  0
   -1.9035    3.7191    0.5598 C   0  0  0  0  0  0  0  0  0  0  0  0
   -2.8391    4.2535    0.7861 H   0  0  0  0  0  0  0  0  0  0  0  0
   -0.6680    4.3708    0.6469 C   0  0  0  0  0  0  0  0  0  0  0  0
   -0.6090    5.4334    0.9237 H   0  0  0  0  0  0  0  0  0  0  0  0
    0.5059    3.6447    0.4041 C   0  0  0  0  0  0  0  0  0  0  0  0
    1.4973    4.1124    0.4989 H   0  0  0  0  0  0  0  0  0  0  0  0
    3.6657   -0.0407   -0.5110 C   0  0  0  0  0  0  0  0  0  0  0  0
    4.3311   -1.2391   -0.1811 C   0  0  0  0  0  0  0  0  0  0  0  0
    3.7755   -2.0697    0.2809 H   0  0  0  0  0  0  0  0  0  0  0  0
    5.7029   -1.3640   -0.4395 C   0  0  0  0  0  0  0  0  0  0  0  0
    6.2241   -2.2979   -0.1812 H   0  0  0  0  0  0  0  0  0  0  0  0
    6.4087   -0.2993   -1.0234 C   0  0  0  0  0  0  0  0  0  0  0  0
    7.4862   -0.3996   -1.2237 H   0  0  0  0  0  0  0  0  0  0  0  0
    5.7431    0.8930   -1.3518 C   0  0  0  0  0  0  0  0  0  0  0  0
    6.2973    1.7268   -1.8082 H   0  0  0  0  0  0  0  0  0  0  0  0
    4.3700    1.0270   -1.1018 C   0  0  0  0  0  0  0  0  0  0  0  0
    3.8397    1.9560   -1.3545 H   0  0  0  0  0  0  0  0  0  0  0  0
    1.5007   -0.6674    1.3685 C   0  0  0  0  0  0  0  0  0  0  0  0
    2.0427   -0.0485    2.5141 C   0  0  0  0  0  0  0  0  0  0  0  0
    2.6701    0.8502    2.4123 H   0  0  0  0  0  0  0  0  0  0  0  0
    1.7642   -0.5790    3.7810 C   0  0  0  0  0  0  0  0  0  0  0  0
    2.1761   -0.0949    4.6792 H   0  0  0  0  0  0  0  0  0  0  0  0
    0.9558   -1.7222    3.9019 C   0  0  0  0  0  0  0  0  0  0  0  0
    0.7370   -2.1342    4.8989 H   0  0  0  0  0  0  0  0  0  0  0  0
    0.4235   -2.3375    2.7574 C   0  0  0  0  0  0  0  0  0  0  0  0
   -0.2149   -3.2286    2.8515 H   0  0  0  0  0  0  0  0  0  0  0  0
    0.6896   -1.8142    1.4833 C   0  0  0  0  0  0  0  0  0  0  0  0
    0.2468   -2.2759    0.5847 H   0  0  0  0  0  0  0  0  0  0  0  0
   -3.1726    1.5981    0.2070 C   0  0  0  0  0  0  0  0  0  0  0  0
   -4.1137    2.0887    0.5120 H   0  0  0  0  0  0  0  0  0  0  0  0
   -4.3587   -0.5190    0.0116 C   0  0  0  0  0  0  0  0  0  0  0  0
   -3.9992   -1.7226    0.9038 C   0  0  0  0  0  0  0  0  0  0  0  0
   -3.1667   -2.2968    0.4536 H   0  0  0  0  0  0  0  0  0  0  0  0
   -4.8799   -2.3883    1.0021 H   0  0  0  0  0  0  0  0  0  0  0  0
   -3.7045   -1.3789    1.9164 H   0  0  0  0  0  0  0  0  0  0  0  0
   -4.7388   -0.9693   -1.4118 C   0  0  0  0  0  0  0  0  0  0  0  0
   -3.9103   -1.5423   -1.8698 H   0  0  0  0  0  0  0  0  0  0  0  0
   -4.9719   -0.0893   -2.0449 H   0  0  0  0  0  0  0  0  0  0  0  0
   -5.6380   -1.6161   -1.3674 H   0  0  0  0  0  0  0  0  0  0  0  0
   -5.5499    0.2285    0.6373 C   0  0  0  0  0  0  0  0  0  0  0  0
   -5.8920    1.0807    0.0153 H   0  0  0  0  0  0  0  0  0  0  0  0
   -5.3237    0.5976    1.6586 H   0  0  0  0  0  0  0  0  0  0  0  0
   -6.3994   -0.4764    0.7181 H   0  0  0  0  0  0  0  0  0  0  0  0
  1  3  1  0  0  0  0
  1 25  1  0  0  0  0
  2  1  1  0  0  0  0
  3  5  1  0  0  0  0
  4 38  1  0  0  0  0
  4 36  1  0  0  0  0
  5 12  2  0  0  0  0
  6  5  1  0  0  0  0
  6  7  1  0  0  0  0
  7 36  2  0  0  0  0
  7  8  1  0  0  0  0
  8 10  2  0  0  0  0
  8  9  1  0  0  0  0
 10 11  1  0  0  0  0
 12 13  1  0  0  0  0
 12 10  1  0  0  0  0
 14  1  1  0  0  0  0
 14 15  1  0  0  0  0
 15 16  1  0  0  0  0
 17 18  1  0  0  0  0
 17 15  2  0  0  0  0
 19 17  1  0  0  0  0
 20 19  1  0  0  0  0
 21 23  1  0  0  0  0
 21 19  2  0  0  0  0
 22 21  1  0  0  0  0
 23 14  2  0  0  0  0
 24 23  1  0  0  0  0
 25 34  2  0  0  0  0
 25 26  1  0  0  0  0
 26 28  2  0  0  0  0
 27 26  1  0  0  0  0
 28 30  1  0  0  0  0
 28 29  1  0  0  0  0
 30 31  1  0  0  0  0
 32 33  1  0  0  0  0
 32 30  2  0  0  0  0
 34 32  1  0  0  0  0
 35 34  1  0  0  0  0
 36 37  1  0  0  0  0
 38 47  1  0  0  0  0
 38 39  1  0  0  0  0
 39 41  1  0  0  0  0
 39 42  1  0  0  0  0
 40 39  1  0  0  0  0
 43 46  1  0  0  0  0
 43 38  1  0  0  0  0
 44 43  1  0  0  0  0
 45 43  1  0  0  0  0
 47 50  1  0  0  0  0
 47 49  1  0  0  0  0
 48 47  1  0  0  0  0
M  END
