1,2,5
q = -1.0

 30 31  0  0  0  0  0  0  0  0999 V2000
    2.2188   -1.6694    0.1485 S   0  0  0  0  0  0  0  0  0  0  0  0
    2.5805    1.3129    0.0413 N   0  0  0  0  0  2  0  0  0  0  0  0
    2.5513    2.5896   -0.0086 N   0  0  0  0  0  0  0  0  0  0  0  0
    1.2717    3.0930   -0.0395 C   0  0  0  0  0  0  0  0  0  0  0  0
    0.1383    2.1949   -0.0030 C   0  0  0  0  0  2  0  0  0  0  0  0
   -1.1300    2.7680   -0.0124 C   0  0  0  0  0  0  0  0  0  0  0  0
   -2.0303    2.1364    0.0123 H   0  0  0  0  0  0  0  0  0  0  0  0
   -1.3229    4.1776   -0.0759 C   0  0  0  0  0  0  0  0  0  0  0  0
   -0.1964    5.0274   -0.1211 C   0  0  0  0  0  0  0  0  0  0  0  0
   -0.3403    6.1167   -0.1726 H   0  0  0  0  0  0  0  0  0  0  0  0
    1.0932    4.4952   -0.0990 C   0  0  0  0  0  0  0  0  0  0  0  0
    1.9836    5.1394   -0.1271 H   0  0  0  0  0  0  0  0  0  0  0  0
    3.8162    0.6392    0.1043 C   0  0  0  0  0  0  0  0  0  0  0  0
    3.7912   -0.7774    0.1513 C   0  0  0  0  0  0  0  0  0  0  0  0
    4.9908   -1.4989    0.2410 C   0  0  0  0  0  0  0  0  0  0  0  0
    4.9640   -2.5971    0.3040 H   0  0  0  0  0  0  0  0  0  0  0  0
    6.2164   -0.8164    0.2574 C   0  0  0  0  0  0  0  0  0  0  0  0
    7.1553   -1.3850    0.3247 H   0  0  0  0  0  0  0  0  0  0  0  0
    6.2425    0.5902    0.2032 C   0  0  0  0  0  0  0  0  0  0  0  0
    7.2050    1.1222    0.2244 H   0  0  0  0  0  0  0  0  0  0  0  0
    5.0534    1.3194    0.1324 C   0  0  0  0  0  0  0  0  0  0  0  0
    5.0456    2.4173    0.0975 H   0  0  0  0  0  0  0  0  0  0  0  0
   -2.7204    4.7270   -0.0949 C   0  0  0  0  0  0  0  0  0  0  0  0
   -3.3149    4.2626   -0.9091 H   0  0  0  0  0  0  0  0  0  0  0  0
   -2.7367    5.8245   -0.2291 H   0  0  0  0  0  0  0  0  0  0  0  0
   -3.2483    4.4875    0.8528 H   0  0  0  0  0  0  0  0  0  0  0  0
    2.2226   -2.3701   -1.5452 C   0  0  0  0  0  0  0  0  0  0  0  0
    2.3188   -1.5651   -2.2957 H   0  0  0  0  0  0  0  0  0  0  0  0
    1.2578   -2.8990   -1.6613 H   0  0  0  0  0  0  0  0  0  0  0  0
    3.0568   -3.0909   -1.6302 H   0  0  0  0  0  0  0  0  0  0  0  0
  1 14  1  0  0  0  0
  2 13  1  0  0  0  0
  3  2  1  0  0  0  0
  4  3  2  0  0  0  0
  4  5  1  0  0  0  0
  6  5  1  0  0  0  0
  6  7  1  0  0  0  0
  8  6  2  0  0  0  0
  9 11  2  0  0  0  0
  9  8  1  0  0  0  0
 10  9  1  0  0  0  0
 11  4  1  0  0  0  0
 12 11  1  0  0  0  0
 13 21  2  0  0  0  0
 13 14  1  0  0  0  0
 14 15  2  0  0  0  0
 15 17  1  0  0  0  0
 15 16  1  0  0  0  0
 17 18  1  0  0  0  0
 19 20  1  0  0  0  0
 19 17  2  0  0  0  0
 21 19  1  0  0  0  0
 22 21  1  0  0  0  0
 23  8  1  0  0  0  0
 23 26  1  0  0  0  0
 24 23  1  0  0  0  0
 25 23  1  0  0  0  0
 27  1  1  0  0  0  0
 28 27  1  0  0  0  0
 29 27  1  0  0  0  0
 30 27  1  0  0  0  0
M  END
