1,3,5
q = -1.0, confidence = 0.016

 30 31  0  0  0  0  0  0  0  0999 V2000
    2.3676   -1.2581   -0.3247 S   0  0  0  0  0  0  0  0  0  0  0  0
   -0.6158    1.8194    0.0050 N   0  0  0  0  0  0  0  0  0  0  0  0
    0.3500    0.9723   -0.0853 N   0  0  0  0  0  2  0  0  0  0  0  0
   -1.8404    1.1888    0.0209 C   0  0  0  0  0  0  0  0  0  0  0  0
   -1.8785   -0.2498   -0.0370 C   0  0  0  0  0  2  0  0  0  0  0  0
   -3.1303   -0.8738   -0.0112 C   0  0  0  0  0  0  0  0  0  0  0  0
   -3.1836   -1.9721   -0.0492 H   0  0  0  0  0  0  0  0  0  0  0  0
   -4.3010   -0.0982    0.0685 C   0  0  0  0  0  0  0  0  0  0  0  0
   -5.2779   -0.6097    0.0899 H   0  0  0  0  0  0  0  0  0  0  0  0
   -4.2757    1.3193    0.1249 C   0  0  0  0  0  0  0  0  0  0  0  0
   -3.0294    1.9556    0.1012 C   0  0  0  0  0  0  0  0  0  0  0  0
   -2.9476    3.0522    0.1432 H   0  0  0  0  0  0  0  0  0  0  0  0
    1.6815    1.4486   -0.0742 C   0  0  0  0  0  0  0  0  0  0  0  0
    2.7353    0.5009   -0.1451 C   0  0  0  0  0  0  0  0  0  0  0  0
    4.0696    0.9375   -0.1337 C   0  0  0  0  0  0  0  0  0  0  0  0
    4.8787    0.1960   -0.2135 H   0  0  0  0  0  0  0  0  0  0  0  0
    4.3639    2.3046   -0.0309 C   0  0  0  0  0  0  0  0  0  0  0  0
    5.4118    2.6389   -0.0185 H   0  0  0  0  0  0  0  0  0  0  0  0
    3.3182    3.2438    0.0395 C   0  0  0  0  0  0  0  0  0  0  0  0
    3.5477    4.3175    0.1103 H   0  0  0  0  0  0  0  0  0  0  0  0
    1.9859    2.8241    0.0148 C   0  0  0  0  0  0  0  0  0  0  0  0
    1.1479    3.5322    0.0678 H   0  0  0  0  0  0  0  0  0  0  0  0
   -5.5619    2.1025    0.2077 C   0  0  0  0  0  0  0  0  0  0  0  0
   -6.1487    1.8199    1.1065 H   0  0  0  0  0  0  0  0  0  0  0  0
   -6.2098    1.9068   -0.6723 H   0  0  0  0  0  0  0  0  0  0  0  0
   -5.3739    3.1923    0.2541 H   0  0  0  0  0  0  0  0  0  0  0  0
    2.8078   -1.9114    1.3295 C   0  0  0  0  0  0  0  0  0  0  0  0
    3.9067   -1.9393    1.4537 H   0  0  0  0  0  0  0  0  0  0  0  0
    2.3875   -2.9355    1.3452 H   0  0  0  0  0  0  0  0  0  0  0  0
    2.3285   -1.3038    2.1184 H   0  0  0  0  0  0  0  0  0  0  0  0
  1 14  1  0  0  0  0
  1 27  1  0  0  0  0
  2  4  2  0  0  0  0
  3 13  1  0  0  0  0
  3  2  1  0  0  0  0
  4 11  1  0  0  0  0
  5  6  1  0  0  0  0
  5  4  1  0  0  0  0
  6  8  2  0  0  0  0
  7  6  1  0  0  0  0
  8  9  1  0  0  0  0
  8 10  1  0  0  0  0
 10 23  1  0  0  0  0
 11 10  2  0  0  0  0
 11 12  1  0  0  0  0
 13 21  1  0  0  0  0
 14 15  1  0  0  0  0
 14 13  2  0  0  0  0
 15 17  2  0  0  0  0
 16 15  1  0  0  0  0
 17 18  1  0  0  0  0
 17 19  1  0  0  0  0
 19 20  1  0  0  0  0
 21 19  2  0  0  0  0
 21 22  1  0  0  0  0
 23 26  1  0  0  0  0
 23 24  1  0  0  0  0
 25 23  1  0  0  0  0
 27 29  1  0  0  0  0
 27 28  1  0  0  0  0
 27 30  1  0  0  0  0
M  END
