1,2,14
q = -1.0, confidence = 0.0

 41 43  0  0  0  0  0  0  0  0999 V2000
   -2.6797    0.8329    0.9951 S   0  0  0  0  0  0  0  0  0  0  0  0
   -0.1520    1.8251   -0.3356 N   0  0  0  0  0  2  0  0  0  0  0  0
    2.0843   -1.4649   -0.0536 N   0  0  0  0  0  0  0  0  0  0  0  0
    2.4325    0.6890    0.1967 N   0  0  0  0  0  0  0  0  0  0  0  0
    3.6361    0.1569   -0.2635 C   0  0  0  0  0  0  0  0  0  0  0  0
    3.4082   -1.2314   -0.4268 C   0  0  0  0  0  0  0  0  0  0  0  0
   -3.4753   -0.2206   -0.2381 C   0  0  0  0  0  0  0  0  0  0  0  0
    0.9193    2.6526   -0.2866 C   0  0  0  0  0  0  0  0  0  0  0  0
   -1.3711    2.3384   -0.9420 C   0  0  0  0  0  0  0  0  0  0  0  0
   -1.7072    1.6765   -1.7708 H   0  0  0  0  0  0  0  0  0  0  0  0
   -1.1560    3.3457   -1.3611 H   0  0  0  0  0  0  0  0  0  0  0  0
   -3.3528   -1.6131   -0.0577 C   0  0  0  0  0  0  0  0  0  0  0  0
   -2.7271   -2.0023    0.7626 H   0  0  0  0  0  0  0  0  0  0  0  0
    1.4909   -0.2924    0.3244 C   0  0  0  0  0  2  0  0  0  0  0  0
    4.8829    0.7302   -0.5508 C   0  0  0  0  0  0  0  0  0  0  0  0
    5.0660    1.8062   -0.4241 H   0  0  0  0  0  0  0  0  0  0  0  0
    2.1583    2.0977    0.4473 C   0  0  0  0  0  0  0  0  0  0  0  0
    3.0218    2.6928    0.1042 H   0  0  0  0  0  0  0  0  0  0  0  0
    2.0361    2.2599    1.5393 H   0  0  0  0  0  0  0  0  0  0  0  0
    5.8897   -0.1307   -1.0121 C   0  0  0  0  0  0  0  0  0  0  0  0
    6.8805    0.2834   -1.2501 H   0  0  0  0  0  0  0  0  0  0  0  0
   -2.4669    2.4379    0.1127 C   0  0  0  0  0  0  0  0  0  0  0  0
   -3.4470    2.7718   -0.2805 H   0  0  0  0  0  0  0  0  0  0  0  0
   -2.1719    3.1323    0.9250 H   0  0  0  0  0  0  0  0  0  0  0  0
   -4.0054   -2.4809   -0.9434 C   0  0  0  0  0  0  0  0  0  0  0  0
   -3.9042   -3.5675   -0.8006 H   0  0  0  0  0  0  0  0  0  0  0  0
    4.4145   -2.0905   -0.8899 C   0  0  0  0  0  0  0  0  0  0  0  0
    4.2350   -3.1663   -1.0228 H   0  0  0  0  0  0  0  0  0  0  0  0
    5.6607   -1.5150   -1.1789 C   0  0  0  0  0  0  0  0  0  0  0  0
    6.4767   -2.1555   -1.5445 H   0  0  0  0  0  0  0  0  0  0  0  0
   -4.2493    0.2940   -1.2931 C   0  0  0  0  0  0  0  0  0  0  0  0
   -4.3644    1.3763   -1.4402 H   0  0  0  0  0  0  0  0  0  0  0  0
   -4.7732   -1.9765   -2.0061 C   0  0  0  0  0  0  0  0  0  0  0  0
   -5.2787   -2.6635   -2.7011 H   0  0  0  0  0  0  0  0  0  0  0  0
    1.4404   -2.7659   -0.1404 C   0  0  0  0  0  0  0  0  0  0  0  0
    2.0927   -3.5299    0.3254 H   0  0  0  0  0  0  0  0  0  0  0  0
    1.2622   -3.0357   -1.2013 H   0  0  0  0  0  0  0  0  0  0  0  0
    0.4882   -2.7212    0.4214 H   0  0  0  0  0  0  0  0  0  0  0  0
   -4.8907   -0.5898   -2.1762 C   0  0  0  0  0  0  0  0  0  0  0  0
   -5.4895   -0.1813   -3.0044 H   0  0  0  0  0  0  0  0  0  0  0  0
    0.9729    3.8066   -0.7366 O   0  0  0  0  0  0  0  0  0  0  0  0
  2  8  1  0  0  0  0
  3 14  1  0  0  0  0
  4 14  1  0  0  0  0
  4 17  1  0  0  0  0
  5  4  1  0  0  0  0
  6  5  1  0  0  0  0
  6  3  1  0  0  0  0
  7 12  1  0  0  0  0
  7  1  1  0  0  0  0
  8 17  1  0  0  0  0
  9  2  1  0  0  0  0
  9 22  1  0  0  0  0
 10  9  1  0  0  0  0
 11  9  1  0  0  0  0
 12 13  1  0  0  0  0
 15 16  1  0  0  0  0
 15  5  2  0  0  0  0
 17 19  1  0  0  0  0
 18 17  1  0  0  0  0
 20 15  1  0  0  0  0
 21 20  1  0  0  0  0
 22 24  1  0  0  0  0
 22  1  1  0  0  0  0
 23 22  1  0  0  0  0
 25 26  1  0  0  0  0
 25 12  2  0  0  0  0
 27  6  2  0  0  0  0
 28 27  1  0  0  0  0
 29 20  2  0  0  0  0
 29 27  1  0  0  0  0
 30 29  1  0  0  0  0
 31  7  2  0  0  0  0
 32 31  1  0  0  0  0
 33 25  1  0  0  0  0
 34 33  1  0  0  0  0
 35  3  1  0  0  0  0
 35 36  1  0  0  0  0
 35 38  1  0  0  0  0
 37 35  1  0  0  0  0
 39 33  2  0  0  0  0
 39 31  1  0  0  0  0
 40 39  1  0  0  0  0
 41  8  2  0  0  0  0
M  END
