1,4,5
q = -1.0

 30 31  0  0  0  0  0  0  0  0999 V2000
    2.2143   -1.3508    0.3619 S   0  0  0  0  0  0  0  0  0  0  0  0
   -0.1992    2.2458   -0.0712 N   0  0  0  0  0  2  0  0  0  0  0  0
   -1.5198    1.8625   -0.0930 C   0  0  0  0  0  0  0  0  0  0  0  0
   -1.8467    0.4654   -0.0333 C   0  0  0  0  0  3  0  0  0  0  0  0
    0.6062    1.2569    0.0113 N   0  0  0  0  0  2  0  0  0  0  0  0
    2.8589    0.3235    0.1436 C   0  0  0  0  0  0  0  0  0  0  0  0
    2.5540    2.7461   -0.0811 C   0  0  0  0  0  0  0  0  0  0  0  0
    2.0028    1.4508    0.0265 C   0  0  0  0  0  0  0  0  0  0  0  0
   -3.8779    2.4000   -0.1911 C   0  0  0  0  0  0  0  0  0  0  0  0
    3.9389    2.9178   -0.0821 C   0  0  0  0  0  0  0  0  0  0  0  0
    4.2498    0.5179    0.1568 C   0  0  0  0  0  0  0  0  0  0  0  0
    2.7222   -2.1489   -1.1992 C   0  0  0  0  0  0  0  0  0  0  0  0
   -2.5519    2.8276   -0.1716 C   0  0  0  0  0  0  0  0  0  0  0  0
   -4.2070    1.0216   -0.1332 C   0  0  0  0  0  0  0  0  0  0  0  0
   -3.1707    0.0563   -0.0508 C   0  0  0  0  0  0  0  0  0  0  0  0
    4.7913    1.8044    0.0334 C   0  0  0  0  0  0  0  0  0  0  0  0
   -5.6394    0.5677   -0.1629 C   0  0  0  0  0  0  0  0  0  0  0  0
    3.8251   -2.1610   -1.2742 H   0  0  0  0  0  0  0  0  0  0  0  0
    2.3306   -3.1811   -1.1197 H   0  0  0  0  0  0  0  0  0  0  0  0
    2.2337   -1.6323   -2.0476 H   0  0  0  0  0  0  0  0  0  0  0  0
   -6.3459    1.4182   -0.1995 H   0  0  0  0  0  0  0  0  0  0  0  0
   -5.8268   -0.0792   -1.0456 H   0  0  0  0  0  0  0  0  0  0  0  0
   -5.8756   -0.0469    0.7307 H   0  0  0  0  0  0  0  0  0  0  0  0
    5.8828    1.9394    0.0412 H   0  0  0  0  0  0  0  0  0  0  0  0
    4.3610    3.9298   -0.1701 H   0  0  0  0  0  0  0  0  0  0  0  0
    1.8613    3.5936   -0.1687 H   0  0  0  0  0  0  0  0  0  0  0  0
   -3.4016   -1.0188   -0.0055 H   0  0  0  0  0  0  0  0  0  0  0  0
   -4.6893    3.1407   -0.2520 H   0  0  0  0  0  0  0  0  0  0  0  0
   -2.2838    3.8929   -0.2130 H   0  0  0  0  0  0  0  0  0  0  0  0
    4.9120   -0.3527    0.2755 H   0  0  0  0  0  0  0  0  0  0  0  0
  2  5  1  0  0  0  0
  3  2  1  0  0  0  0
  3  4  1  0  0  0  0
  5  8  1  0  0  0  0
  6 11  1  0  0  0  0
  6  1  1  0  0  0  0
  7  8  1  0  0  0  0
  8  6  2  0  0  0  0
  9 13  1  0  0  0  0
  9 14  2  0  0  0  0
 10  7  2  0  0  0  0
 10 16  1  0  0  0  0
 11 30  1  0  0  0  0
 12 19  1  0  0  0  0
 12  1  1  0  0  0  0
 13  3  2  0  0  0  0
 14 15  1  0  0  0  0
 15  4  2  0  0  0  0
 15 27  1  0  0  0  0
 16 24  1  0  0  0  0
 16 11  2  0  0  0  0
 17 14  1  0  0  0  0
 17 23  1  0  0  0  0
 18 12  1  0  0  0  0
 20 12  1  0  0  0  0
 21 17  1  0  0  0  0
 22 17  1  0  0  0  0
 25 10  1  0  0  0  0
 26  7  1  0  0  0  0
 28  9  1  0  0  0  0
 29 13  1  0  0  0  0
M  END
