1,4,6
q = -1.0

 33 34  0  0  0  0  0  0  0  0999 V2000
   -1.9110   -0.5368   -1.3354 S   0  0  0  0  0  0  0  0  0  0  0  0
   -3.0117   -2.8196    2.2949 Cl  0  0  0  0  0  0  0  0  0  0  0  0
    0.9197    2.1499    0.4615 N   0  0  0  0  0  0  0  0  0  0  0  0
   -0.0066    1.4096   -0.0426 N   0  0  0  0  0  2  0  0  0  0  0  0
    2.1327    1.5043    0.4714 C   0  0  0  0  0  0  0  0  0  0  0  0
    2.2067    0.1497   -0.0223 C   0  0  0  0  0  2  0  0  0  0  0  0
    3.4365   -0.5044    0.0026 C   0  0  0  0  0  0  0  0  0  0  0  0
    4.5967    0.1419    0.5012 C   0  0  0  0  0  0  0  0  0  0  0  0
    4.5030    1.4724    0.9796 C   0  0  0  0  0  0  0  0  0  0  0  0
    3.2870    2.1548    0.9701 C   0  0  0  0  0  0  0  0  0  0  0  0
    5.9089   -0.5939    0.5174 C   0  0  0  0  0  0  0  0  0  0  0  0
   -1.3321    1.8984   -0.0760 C   0  0  0  0  0  0  0  0  0  0  0  0
   -1.6757    3.1740    0.4222 C   0  0  0  0  0  0  0  0  0  0  0  0
   -3.0062    3.5985    0.3952 C   0  0  0  0  0  0  0  0  0  0  0  0
   -4.0107    2.7659   -0.1326 C   0  0  0  0  0  0  0  0  0  0  0  0
   -3.6755    1.5050   -0.6454 C   0  0  0  0  0  0  0  0  0  0  0  0
   -2.3440    1.0599   -0.6114 C   0  0  0  0  0  0  0  0  0  0  0  0
   -2.7195   -1.7178   -0.1713 C   0  0  0  0  0  0  0  0  0  0  0  0
   -2.0974   -1.7005    1.2134 C   0  0  0  0  0  0  0  0  0  0  0  0
    3.4955   -1.5405   -0.3660 H   0  0  0  0  0  0  0  0  0  0  0  0
    5.4065    1.9692    1.3648 H   0  0  0  0  0  0  0  0  0  0  0  0
    3.2004    3.1870    1.3396 H   0  0  0  0  0  0  0  0  0  0  0  0
    6.7259    0.0198    0.9422 H   0  0  0  0  0  0  0  0  0  0  0  0
    5.8307   -1.5285    1.1113 H   0  0  0  0  0  0  0  0  0  0  0  0
    6.2020   -0.9000   -0.5088 H   0  0  0  0  0  0  0  0  0  0  0  0
   -0.8702    3.7987    0.8313 H   0  0  0  0  0  0  0  0  0  0  0  0
   -3.2669    4.5924    0.7887 H   0  0  0  0  0  0  0  0  0  0  0  0
   -5.0567    3.1051   -0.1577 H   0  0  0  0  0  0  0  0  0  0  0  0
   -4.4497    0.8582   -1.0849 H   0  0  0  0  0  0  0  0  0  0  0  0
   -2.5798   -2.7029   -0.6596 H   0  0  0  0  0  0  0  0  0  0  0  0
   -3.8030   -1.4873   -0.1413 H   0  0  0  0  0  0  0  0  0  0  0  0
   -1.0436   -2.0396    1.1731 H   0  0  0  0  0  0  0  0  0  0  0  0
   -2.1404   -0.6922    1.6689 H   0  0  0  0  0  0  0  0  0  0  0  0
  1 17  1  0  0  0  0
  1 18  1  0  0  0  0
  3  5  2  0  0  0  0
  4  3  1  0  0  0  0
  5 10  1  0  0  0  0
  6  7  1  0  0  0  0
  6  5  1  0  0  0  0
  7  8  2  0  0  0  0
  8 11  1  0  0  0  0
  8  9  1  0  0  0  0
  9 21  1  0  0  0  0
 10  9  2  0  0  0  0
 10 22  1  0  0  0  0
 11 23  1  0  0  0  0
 11 24  1  0  0  0  0
 12  4  1  0  0  0  0
 12 13  1  0  0  0  0
 13 26  1  0  0  0  0
 14 13  2  0  0  0  0
 14 27  1  0  0  0  0
 15 14  1  0  0  0  0
 16 17  1  0  0  0  0
 16 15  2  0  0  0  0
 17 12  2  0  0  0  0
 18 31  1  0  0  0  0
 18 19  1  0  0  0  0
 19 33  1  0  0  0  0
 19  2  1  0  0  0  0
 20  7  1  0  0  0  0
 25 11  1  0  0  0  0
 28 15  1  0  0  0  0
 29 16  1  0  0  0  0
 30 18  1  0  0  0  0
 32 19  1  0  0  0  0
M  END
