2,5,7
q = -1.0

 56 59  0  0  1  0  0  0  0  0999 V2000
   -1.3969   -0.6891    0.0716 P   0  0  0  0  0  4  0  0  0  0  0  0
    3.3677    0.9105    0.5253 S   0  0  0  0  0  1  0  0  0  0  0  0
    3.6252   -1.4132   -0.8961 O   0  0  0  0  0  0  0  0  0  0  0  0
    5.5120   -0.2722   -0.5124 N   0  0  0  0  0  0  0  0  0  0  0  0
   -0.8750    0.7479   -0.5250 N   0  0  0  0  0  2  0  0  0  0  0  0
    2.3240   -1.9044   -0.7228 C   0  0  0  0  0  0  0  0  0  0  0  0
    1.2131   -1.0989   -0.4272 C   0  0  0  0  0  3  0  0  0  0  0  0
   -0.0255   -1.7951   -0.3349 C   0  0  0  0  0  0  0  0  0  0  0  0
   -0.1606   -3.1797   -0.5272 C   0  0  0  0  0  0  0  0  0  0  0  0
   -1.1467   -3.6646   -0.4553 H   0  0  0  0  0  0  0  0  0  0  0  0
    0.9836   -3.9323   -0.8357 C   0  0  0  0  0  0  0  0  0  0  0  0
    0.9111   -5.0168   -1.0028 H   0  0  0  0  0  0  0  0  0  0  0  0
    2.2266   -3.2913   -0.9338 C   0  0  0  0  0  0  0  0  0  0  0  0
    3.1373   -3.8588   -1.1769 H   0  0  0  0  0  0  0  0  0  0  0  0
    4.1652   -0.3266   -0.3335 C   0  0  1  0  0  3  0  0  0  0  0  0
    6.2899   -1.3899   -1.0315 C   0  0  0  0  0  0  0  0  0  0  0  0
    5.6261   -2.2297   -1.2894 H   0  0  0  0  0  0  0  0  0  0  0  0
    7.0272   -1.7290   -0.2724 H   0  0  0  0  0  0  0  0  0  0  0  0
    6.8450   -1.0797   -1.9418 H   0  0  0  0  0  0  0  0  0  0  0  0
    6.2659    0.8890   -0.0620 C   0  0  0  0  0  0  0  0  0  0  0  0
    5.6845    1.8127   -0.2489 H   0  0  0  0  0  0  0  0  0  0  0  0
    7.2203    0.9308   -0.6207 H   0  0  0  0  0  0  0  0  0  0  0  0
    6.4869    0.8401    1.0266 H   0  0  0  0  0  0  0  0  0  0  0  0
   -1.6436   -0.6916    1.8812 C   0  0  0  0  0  0  0  0  0  0  0  0
   -1.3412    0.4929    2.5842 C   0  0  0  0  0  0  0  0  0  0  0  0
   -0.9771    1.3851    2.0453 H   0  0  0  0  0  0  0  0  0  0  0  0
   -1.4680    0.5113    3.9820 C   0  0  0  0  0  0  0  0  0  0  0  0
   -1.2280    1.4338    4.5315 H   0  0  0  0  0  0  0  0  0  0  0  0
   -1.8842   -0.6375    4.6726 C   0  0  0  0  0  0  0  0  0  0  0  0
   -1.9790   -0.6161    5.7691 H   0  0  0  0  0  0  0  0  0  0  0  0
   -2.1692   -1.8210    3.9698 C   0  0  0  0  0  0  0  0  0  0  0  0
   -2.4829   -2.7253    4.5132 H   0  0  0  0  0  0  0  0  0  0  0  0
   -2.0455   -1.8528    2.5738 C   0  0  0  0  0  0  0  0  0  0  0  0
   -2.2540   -2.7851    2.0256 H   0  0  0  0  0  0  0  0  0  0  0  0
   -2.9165   -1.3054   -0.7246 C   0  0  0  0  0  0  0  0  0  0  0  0
   -4.1327   -1.4922   -0.0394 C   0  0  0  0  0  0  0  0  0  0  0  0
   -4.1915   -1.2981    1.0418 H   0  0  0  0  0  0  0  0  0  0  0  0
   -5.2709   -1.9152   -0.7418 C   0  0  0  0  0  0  0  0  0  0  0  0
   -6.2209   -2.0591   -0.2055 H   0  0  0  0  0  0  0  0  0  0  0  0
   -5.2005   -2.1442   -2.1249 C   0  0  0  0  0  0  0  0  0  0  0  0
   -6.0965   -2.4721   -2.6736 H   0  0  0  0  0  0  0  0  0  0  0  0
   -3.9905   -1.9486   -2.8118 C   0  0  0  0  0  0  0  0  0  0  0  0
   -3.9374   -2.1196   -3.8975 H   0  0  0  0  0  0  0  0  0  0  0  0
   -2.8490   -1.5292   -2.1165 C   0  0  0  0  0  0  0  0  0  0  0  0
   -1.8998   -1.3635   -2.6491 H   0  0  0  0  0  0  0  0  0  0  0  0
   -1.7053    1.8416   -0.8246 C   0  0  0  0  0  0  0  0  0  0  0  0
   -3.0042    1.9973   -0.2855 C   0  0  0  0  0  0  0  0  0  0  0  0
   -3.3788    1.2789    0.4587 H   0  0  0  0  0  0  0  0  0  0  0  0
   -3.8175    3.0729   -0.6732 C   0  0  0  0  0  0  0  0  0  0  0  0
   -4.8271    3.1669   -0.2437 H   0  0  0  0  0  0  0  0  0  0  0  0
   -3.3447    4.0310   -1.5808 C   0  0  0  0  0  0  0  0  0  0  0  0
   -3.9790    4.8802   -1.8759 H   0  0  0  0  0  0  0  0  0  0  0  0
   -2.0421    3.9003   -2.0965 C   0  0  0  0  0  0  0  0  0  0  0  0
   -1.6502    4.6530   -2.7980 H   0  0  0  0  0  0  0  0  0  0  0  0
   -1.2318    2.8232   -1.7281 C   0  0  0  0  0  0  0  0  0  0  0  0
   -0.2097    2.7201   -2.1186 H   0  0  0  0  0  0  0  0  0  0  0  0
  1 24  1  0  0  0  0
  3  6  1  0  0  0  0
  3 15  1  0  0  0  0
  4 15  1  0  0  0  0
  4 20  1  0  0  0  0
  5  1  1  0  0  0  0
  6  7  1  0  0  0  0
  7  8  2  0  0  0  0
  8  1  1  0  0  0  0
  9 10  1  0  0  0  0
  9  8  1  0  0  0  0
 11  9  2  0  0  0  0
 12 11  1  0  0  0  0
 13 11  1  0  0  0  0
 13  6  2  0  0  0  0
 14 13  1  0  0  0  0
 15  2  1  6  0  0  0
 16  4  1  0  0  0  0
 16 18  1  0  0  0  0
 17 16  1  0  0  0  0
 19 16  1  0  0  0  0
 20 23  1  0  0  0  0
 21 20  1  0  0  0  0
 22 20  1  0  0  0  0
 24 33  2  0  0  0  0
 24 25  1  0  0  0  0
 25 27  2  0  0  0  0
 26 25  1  0  0  0  0
 27 28  1  0  0  0  0
 27 29  1  0  0  0  0
 29 30  1  0  0  0  0
 31 32  1  0  0  0  0
 31 29  2  0  0  0  0
 33 31  1  0  0  0  0
 34 33  1  0  0  0  0
 35 36  1  0  0  0  0
 35  1  1  0  0  0  0
 36 37  1  0  0  0  0
 38 39  1  0  0  0  0
 38 36  2  0  0  0  0
 40 38  1  0  0  0  0
 41 40  1  0  0  0  0
 42 40  2  0  0  0  0
 42 44  1  0  0  0  0
 43 42  1  0  0  0  0
 44 35  2  0  0  0  0
 45 44  1  0  0  0  0
 46  5  1  0  0  0  0
 46 47  1  0  0  0  0
 47 48  1  0  0  0  0
 49 47  2  0  0  0  0
 49 50  1  0  0  0  0
 51 49  1  0  0  0  0
 52 51  1  0  0  0  0
 53 55  1  0  0  0  0
 53 51  2  0  0  0  0
 54 53  1  0  0  0  0
 55 46  2  0  0  0  0
 56 55  1  0  0  0  0
M  END
