2,4,7
q = -1.0, confidence = 0.01

 47 51  0  0  1  0  0  0  0  0999 V2000
    2.2512   -0.1129   -0.1744 P   0  0  0  0  0  4  0  0  0  0  0  0
    1.3612   -0.4099   -1.9822 S   0  0  0  0  0  1  0  0  0  0  0  0
   -4.4548    2.0853    0.7641 S   0  0  0  0  0  0  0  0  0  0  0  0
   -2.5564    0.5039   -0.1084 N   0  0  0  0  0  2  0  0  0  0  0  0
   -1.9523    2.7568    0.3759 O   0  0  0  0  0  0  0  0  0  0  0  0
   -0.5840    2.5533    0.6311 C   0  0  0  0  0  0  0  0  0  0  0  0
    0.1031    1.4268    0.1602 C   0  0  0  0  0  2  0  0  0  0  0  0
    1.4793    1.3720    0.5139 C   0  0  2  0  0  3  0  0  0  0  0  0
    2.1289    2.3646    1.2676 C   0  0  0  0  0  0  0  0  0  0  0  0
    3.2002    2.2777    1.5060 H   0  0  0  0  0  0  0  0  0  0  0  0
    1.3908    3.4826    1.6888 C   0  0  0  0  0  0  0  0  0  0  0  0
    1.8746    4.2826    2.2681 H   0  0  0  0  0  0  0  0  0  0  0  0
    0.0282    3.5784    1.3692 C   0  0  0  0  0  0  0  0  0  0  0  0
   -0.5765    4.4400    1.6881 H   0  0  0  0  0  0  0  0  0  0  0  0
   -2.8019    1.7409    0.2747 C   0  0  2  0  0  3  0  0  0  0  0  0
   -3.6977   -0.3049    0.0234 C   0  0  0  0  0  0  0  0  0  0  0  0
   -3.7822   -1.6896   -0.2094 C   0  0  0  0  0  0  0  0  0  0  0  0
   -2.8970   -2.2210   -0.5863 H   0  0  0  0  0  0  0  0  0  0  0  0
   -5.0133   -2.3260   -0.0181 C   0  0  0  0  0  0  0  0  0  0  0  0
   -5.0890   -3.4073   -0.2063 H   0  0  0  0  0  0  0  0  0  0  0  0
   -6.1559   -1.6122    0.3995 C   0  0  0  0  0  0  0  0  0  0  0  0
   -7.1123   -2.1383    0.5370 H   0  0  0  0  0  0  0  0  0  0  0  0
   -6.0871   -0.2358    0.6482 C   0  0  0  0  0  0  0  0  0  0  0  0
   -6.9692    0.3269    0.9860 H   0  0  0  0  0  0  0  0  0  0  0  0
   -4.8506    0.4009    0.4663 C   0  0  0  0  0  0  0  0  0  0  0  0
    4.0515    0.1182   -0.3109 C   0  0  0  0  0  0  0  0  0  0  0  0
    4.5163    1.2794   -0.9667 C   0  0  0  0  0  0  0  0  0  0  0  0
    3.7953    2.0230   -1.3399 H   0  0  0  0  0  0  0  0  0  0  0  0
    5.8916    1.4741   -1.1474 C   0  0  0  0  0  0  0  0  0  0  0  0
    6.2526    2.3809   -1.6554 H   0  0  0  0  0  0  0  0  0  0  0  0
    6.8059    0.5105   -0.6881 C   0  0  0  0  0  0  0  0  0  0  0  0
    7.8857    0.6647   -0.8344 H   0  0  0  0  0  0  0  0  0  0  0  0
    6.3441   -0.6510   -0.0501 C   0  0  0  0  0  0  0  0  0  0  0  0
    7.0590   -1.4102    0.3011 H   0  0  0  0  0  0  0  0  0  0  0  0
    4.9684   -0.8523    0.1392 C   0  0  0  0  0  0  0  0  0  0  0  0
    4.6058   -1.7646    0.6351 H   0  0  0  0  0  0  0  0  0  0  0  0
    1.9471   -1.4907    0.9864 C   0  0  0  0  0  0  0  0  0  0  0  0
    2.4273   -1.4053    2.3096 C   0  0  0  0  0  0  0  0  0  0  0  0
    3.0024   -0.5251    2.6378 H   0  0  0  0  0  0  0  0  0  0  0  0
    2.1582   -2.4435    3.2121 C   0  0  0  0  0  0  0  0  0  0  0  0
    2.5302   -2.3800    4.2458 H   0  0  0  0  0  0  0  0  0  0  0  0
    1.4060   -3.5564    2.7986 C   0  0  0  0  0  0  0  0  0  0  0  0
    1.1910   -4.3672    3.5112 H   0  0  0  0  0  0  0  0  0  0  0  0
    0.9198   -3.6308    1.4839 C   0  0  0  0  0  0  0  0  0  0  0  0
    0.3192   -4.4952    1.1632 H   0  0  0  0  0  0  0  0  0  0  0  0
    1.1865   -2.5991    0.5705 C   0  0  0  0  0  0  0  0  0  0  0  0
    0.7836   -2.6312   -0.4552 H   0  0  0  0  0  0  0  0  0  0  0  0
  1 37  1  0  0  0  0
  2  1  1  0  0  0  0
  4 16  1  0  0  0  0
  4 15  1  0  0  0  0
  5  6  1  0  0  0  0
  6 13  2  0  0  0  0
  7  8  1  0  0  0  0
  7  6  1  0  0  0  0
  8  1  1  6  0  0  0
  8  9  1  0  0  0  0
  9 10  1  0  0  0  0
  9 11  2  0  0  0  0
 11 12  1  0  0  0  0
 13 14  1  0  0  0  0
 13 11  1  0  0  0  0
 15  5  1  1  0  0  0
 15  3  1  0  0  0  0
 16 25  1  0  0  0  0
 17 19  1  0  0  0  0
 17 16  2  0  0  0  0
 18 17  1  0  0  0  0
 19 21  2  0  0  0  0
 20 19  1  0  0  0  0
 21 22  1  0  0  0  0
 21 23  1  0  0  0  0
 23 24  1  0  0  0  0
 25 23  2  0  0  0  0
 25  3  1  0  0  0  0
 26  1  1  0  0  0  0
 26 35  1  0  0  0  0
 27 26  2  0  0  0  0
 28 27  1  0  0  0  0
 29 27  1  0  0  0  0
 29 31  2  0  0  0  0
 30 29  1  0  0  0  0
 31 33  1  0  0  0  0
 32 31  1  0  0  0  0
 33 35  2  0  0  0  0
 33 34  1  0  0  0  0
 35 36  1  0  0  0  0
 37 38  1  0  0  0  0
 38 39  1  0  0  0  0
 38 40  2  0  0  0  0
 40 41  1  0  0  0  0
 42 40  1  0  0  0  0
 42 43  1  0  0  0  0
 44 42  2  0  0  0  0
 45 44  1  0  0  0  0
 46 37  2  0  0  0  0
 46 44  1  0  0  0  0
 47 46  1  0  0  0  0
M  END
