1,3,8
q = -1.0

 27 28  0  0  0  0  0  0  0  0999 V2000
   -2.3803   -1.2945   -0.3037 S   0  0  0  0  0  0  0  0  0  0  0  0
    5.3729    1.4492    0.0972 Cl  0  0  0  0  0  0  0  0  0  0  0  0
    1.3948    0.8846   -0.0177 C   0  0  0  0  0  2  0  0  0  0  0  0
    3.2092    3.0890    0.1341 C   0  0  0  0  0  0  0  0  0  0  0  0
    3.9391    3.9076    0.1919 H   0  0  0  0  0  0  0  0  0  0  0  0
   -5.3331    1.5345   -0.0625 C   0  0  0  0  0  0  0  0  0  0  0  0
   -6.4329    1.5502   -0.0666 H   0  0  0  0  0  0  0  0  0  0  0  0
   -1.1080    1.4206   -0.0609 N   0  0  0  0  0  2  0  0  0  0  0  0
    0.9294    2.2532    0.0417 C   0  0  0  0  0  0  0  0  0  0  0  0
    3.6600    1.7516    0.0739 C   0  0  0  0  0  0  0  0  0  0  0  0
    1.8393    3.3368    0.1180 C   0  0  0  0  0  0  0  0  0  0  0  0
    1.4440    4.3619    0.1613 H   0  0  0  0  0  0  0  0  0  0  0  0
    2.7736    0.6565   -0.0017 C   0  0  0  0  0  0  0  0  0  0  0  0
    3.1727   -0.3668   -0.0422 H   0  0  0  0  0  0  0  0  0  0  0  0
   -0.4216    2.5050    0.0256 N   0  0  0  0  0  0  0  0  0  0  0  0
   -3.2093    2.7228    0.0116 C   0  0  0  0  0  0  0  0  0  0  0  0
   -2.6147    3.6445    0.0698 H   0  0  0  0  0  0  0  0  0  0  0  0
   -4.6537    0.3110   -0.1526 C   0  0  0  0  0  0  0  0  0  0  0  0
   -5.2127   -0.6329   -0.2388 H   0  0  0  0  0  0  0  0  0  0  0  0
   -2.5181    1.4939   -0.0646 C   0  0  0  0  0  0  0  0  0  0  0  0
   -4.6062    2.7370    0.0163 C   0  0  0  0  0  0  0  0  0  0  0  0
   -5.1388    3.6978    0.0774 H   0  0  0  0  0  0  0  0  0  0  0  0
   -3.2505    0.2817   -0.1424 C   0  0  0  0  0  0  0  0  0  0  0  0
   -2.6887   -2.0542    1.3346 C   0  0  0  0  0  0  0  0  0  0  0  0
   -2.3920   -1.3592    2.1407 H   0  0  0  0  0  0  0  0  0  0  0  0
   -2.0399   -2.9511    1.3572 H   0  0  0  0  0  0  0  0  0  0  0  0
   -3.7528   -2.3434    1.4226 H   0  0  0  0  0  0  0  0  0  0  0  0
  1 23  1  0  0  0  0
  1 24  1  0  0  0  0
  3 13  1  0  0  0  0
  3  9  1  0  0  0  0
  4  5  1  0  0  0  0
  6 21  1  0  0  0  0
  7  6  1  0  0  0  0
  8 15  1  0  0  0  0
  9 11  1  0  0  0  0
 10  2  1  0  0  0  0
 10  4  1  0  0  0  0
 11  4  2  0  0  0  0
 11 12  1  0  0  0  0
 13 10  2  0  0  0  0
 14 13  1  0  0  0  0
 15  9  2  0  0  0  0
 16 21  2  0  0  0  0
 16 17  1  0  0  0  0
 18 23  1  0  0  0  0
 18  6  2  0  0  0  0
 19 18  1  0  0  0  0
 20  8  1  0  0  0  0
 20 16  1  0  0  0  0
 21 22  1  0  0  0  0
 23 20  2  0  0  0  0
 24 26  1  0  0  0  0
 24 27  1  0  0  0  0
 24 25  1  0  0  0  0
M  END
