1,3,5
q = -1.0, confidence = 0.008

 37 39  0  0  1  0  0  0  0  0999 V2000
    2.2815    0.4162   -1.3973 S   0  0  0  0  0  0  0  0  0  0  0  0
   -4.1459   -0.4017    0.6035 C   0  0  0  0  0  0  0  0  0  0  0  0
   -0.2361    1.6178   -0.0875 N   0  0  0  0  0  2  0  0  0  0  0  0
   -2.6667    1.5328    0.2297 C   0  0  0  0  0  0  0  0  0  0  0  0
   -1.7494   -0.8421    0.0976 C   0  0  0  0  0  3  0  0  0  0  0  0
    3.3449    0.1541    0.0380 C   0  0  0  0  0  0  0  0  0  0  0  0
   -1.3897    2.1912    0.1046 C   0  0  0  0  0  0  0  0  0  0  0  0
   -1.4010    3.2944    0.2198 H   0  0  0  0  0  0  0  0  0  0  0  0
   -4.3556   -1.7956    0.7953 C   0  0  0  0  0  0  0  0  0  0  0  0
   -5.3693   -2.1517    1.0353 H   0  0  0  0  0  0  0  0  0  0  0  0
   -2.8168    0.0958    0.2884 C   0  0  1  0  0  3  0  0  0  0  0  0
   -2.0039   -2.1987    0.3383 C   0  0  0  0  0  0  0  0  0  0  0  0
   -1.1872   -2.9216    0.2043 H   0  0  0  0  0  0  0  0  0  0  0  0
    0.9669    2.4560   -0.0486 C   0  0  0  0  0  0  0  0  0  0  0  0
    0.6874    3.5330   -0.0036 H   0  0  0  0  0  0  0  0  0  0  0  0
    1.5303    2.2170    0.8803 H   0  0  0  0  0  0  0  0  0  0  0  0
    1.8617    2.1982   -1.2528 C   0  0  0  0  0  0  0  0  0  0  0  0
    2.7807    2.8145   -1.2202 H   0  0  0  0  0  0  0  0  0  0  0  0
    1.3343    2.4234   -2.2017 H   0  0  0  0  0  0  0  0  0  0  0  0
   -5.0671    1.8763    0.6191 C   0  0  0  0  0  0  0  0  0  0  0  0
   -5.9209    2.5606    0.7286 H   0  0  0  0  0  0  0  0  0  0  0  0
    3.2554   -1.0899    0.6928 C   0  0  0  0  0  0  0  0  0  0  0  0
    2.5154   -1.8314    0.3467 H   0  0  0  0  0  0  0  0  0  0  0  0
   -3.2906   -2.6732    0.6924 C   0  0  0  0  0  0  0  0  0  0  0  0
   -3.4377   -3.7516    0.8602 H   0  0  0  0  0  0  0  0  0  0  0  0
   -5.2376    0.5032    0.7370 C   0  0  0  0  0  0  0  0  0  0  0  0
   -6.2335    0.0844    0.9524 H   0  0  0  0  0  0  0  0  0  0  0  0
   -3.7750    2.3838    0.3913 C   0  0  0  0  0  0  0  0  0  0  0  0
   -3.6157    3.4730    0.3514 H   0  0  0  0  0  0  0  0  0  0  0  0
    5.0368   -0.3990    2.2086 C   0  0  0  0  0  0  0  0  0  0  0  0
    5.6955   -0.6131    3.0635 H   0  0  0  0  0  0  0  0  0  0  0  0
    5.1235    0.8347    1.5456 C   0  0  0  0  0  0  0  0  0  0  0  0
    5.8540    1.5901    1.8731 H   0  0  0  0  0  0  0  0  0  0  0  0
    4.2879    1.1126    0.4525 C   0  0  0  0  0  0  0  0  0  0  0  0
    4.3868    2.0742   -0.0718 H   0  0  0  0  0  0  0  0  0  0  0  0
    4.1082   -1.3581    1.7732 C   0  0  0  0  0  0  0  0  0  0  0  0
    4.0348   -2.3296    2.2849 H   0  0  0  0  0  0  0  0  0  0  0  0
  1 17  1  0  0  0  0
  1  6  1  0  0  0  0
  2 26  2  0  0  0  0
  2  9  1  0  0  0  0
  3 14  1  0  0  0  0
  3  7  1  0  0  0  0
  4 11  1  0  0  0  0
  4 28  1  0  0  0  0
  5 12  2  0  0  0  0
  6 34  2  0  0  0  0
  6 22  1  0  0  0  0
  7  8  1  0  0  0  0
  7  4  2  0  0  0  0
  9 10  1  0  0  0  0
 11  5  1  1  0  0  0
 11  2  1  0  0  0  0
 12 24  1  0  0  0  0
 13 12  1  0  0  0  0
 14 15  1  0  0  0  0
 14 16  1  0  0  0  0
 17 18  1  0  0  0  0
 17 14  1  0  0  0  0
 19 17  1  0  0  0  0
 20 21  1  0  0  0  0
 20 26  1  0  0  0  0
 22 36  2  0  0  0  0
 23 22  1  0  0  0  0
 24  9  2  0  0  0  0
 24 25  1  0  0  0  0
 26 27  1  0  0  0  0
 28 20  2  0  0  0  0
 29 28  1  0  0  0  0
 30 31  1  0  0  0  0
 32 33  1  0  0  0  0
 32 30  2  0  0  0  0
 34 32  1  0  0  0  0
 35 34  1  0  0  0  0
 36 30  1  0  0  0  0
 36 37  1  0  0  0  0
M  END
