1,3,29
q = -1.0

 47 50  0  0  0  0  0  0  0  0999 V2000
    2.9235   -1.3253   -0.7789 S   0  0  0  0  0  0  0  0  0  0  0  0
   -4.9492   -1.2841    0.0200 O   0  0  0  0  0  0  0  0  0  0  0  0
    0.7664    0.7828   -0.7727 N   0  0  0  0  0  2  0  0  0  0  0  0
   -0.2535    1.5690   -0.6312 N   0  0  0  0  0  0  0  0  0  0  0  0
    2.0491    1.3341   -0.9119 C   0  0  0  0  0  0  0  0  0  0  0  0
    2.2722    2.7267   -1.0043 C   0  0  0  0  0  0  0  0  0  0  0  0
    1.3997    3.3916   -0.9559 H   0  0  0  0  0  0  0  0  0  0  0  0
    3.5707    3.2188   -1.1512 C   0  0  0  0  0  0  0  0  0  0  0  0
    3.7326    4.3050   -1.2233 H   0  0  0  0  0  0  0  0  0  0  0  0
    4.6694    2.3402   -1.2175 C   0  0  0  0  0  0  0  0  0  0  0  0
    5.6889    2.7328   -1.3452 H   0  0  0  0  0  0  0  0  0  0  0  0
    4.4578    0.9573   -1.1282 C   0  0  0  0  0  0  0  0  0  0  0  0
    5.3032    0.2547   -1.1810 H   0  0  0  0  0  0  0  0  0  0  0  0
    3.1591    0.4493   -0.9627 C   0  0  0  0  0  0  0  0  0  0  0  0
    3.3137   -1.5305    1.0538 C   0  0  0  0  0  0  0  0  0  0  0  0
    3.1337   -2.6123    1.2098 H   0  0  0  0  0  0  0  0  0  0  0  0
    4.3951   -1.3180    1.1613 H   0  0  0  0  0  0  0  0  0  0  0  0
    2.8461    0.6547    2.2254 C   0  0  0  0  0  0  0  0  0  0  0  0
    3.8366    1.0144    1.9062 H   0  0  0  0  0  0  0  0  0  0  0  0
    1.9764    1.5166    2.9112 C   0  0  0  0  0  0  0  0  0  0  0  0
    2.2919    2.5472    3.1335 H   0  0  0  0  0  0  0  0  0  0  0  0
    0.7060    1.0672    3.3035 C   0  0  0  0  0  0  0  0  0  0  0  0
    0.0191    1.7464    3.8309 H   0  0  0  0  0  0  0  0  0  0  0  0
    0.3142   -0.2522    3.0232 C   0  0  0  0  0  0  0  0  0  0  0  0
   -0.6807   -0.6108    3.3265 H   0  0  0  0  0  0  0  0  0  0  0  0
    1.1784   -1.1129    2.3329 C   0  0  0  0  0  0  0  0  0  0  0  0
    0.8549   -2.1353    2.0832 H   0  0  0  0  0  0  0  0  0  0  0  0
    2.4526   -0.6638    1.9195 C   0  0  0  0  0  0  0  0  0  0  0  0
   -1.3716   -0.5561   -0.4921 C   0  0  0  0  0  3  0  0  0  0  0  0
   -1.4161    0.8790   -0.4845 C   0  0  0  0  0  0  0  0  0  0  0  0
   -2.6698    1.5769   -0.3041 C   0  0  0  0  0  3  0  0  0  0  0  0
   -2.7626    2.9928   -0.2825 C   0  0  0  0  0  0  0  0  0  0  0  0
   -1.8397    3.5751   -0.4112 H   0  0  0  0  0  0  0  0  0  0  0  0
   -3.9910    3.6211   -0.1033 C   0  0  0  0  0  0  0  0  0  0  0  0
   -4.0450    4.7205   -0.0903 H   0  0  0  0  0  0  0  0  0  0  0  0
   -5.1718    2.8572    0.0615 C   0  0  0  0  0  0  0  0  0  0  0  0
   -6.1389    3.3629    0.2015 H   0  0  0  0  0  0  0  0  0  0  0  0
   -5.1094    1.4682    0.0467 C   0  0  0  0  0  0  0  0  0  0  0  0
   -6.0155    0.8604    0.1743 H   0  0  0  0  0  0  0  0  0  0  0  0
   -3.8668    0.8044   -0.1335 C   0  0  0  0  0  0  0  0  0  0  0  0
   -3.7768   -0.6398   -0.1454 C   0  0  0  0  0  0  0  0  0  0  0  0
   -2.5487   -1.2976   -0.3171 C   0  0  0  0  0  0  0  0  0  0  0  0
   -2.4688   -2.3936   -0.3155 H   0  0  0  0  0  0  0  0  0  0  0  0
   -4.9607   -2.7072    0.0196 C   0  0  0  0  0  0  0  0  0  0  0  0
   -6.0147   -3.0054    0.1649 H   0  0  0  0  0  0  0  0  0  0  0  0
   -4.3414   -3.1172    0.8455 H   0  0  0  0  0  0  0  0  0  0  0  0
   -4.5887   -3.1142   -0.9444 H   0  0  0  0  0  0  0  0  0  0  0  0
  1 15  1  0  0  0  0
  3  4  1  0  0  0  0
  4 30  2  0  0  0  0
  5  3  1  0  0  0  0
  6  7  1  0  0  0  0
  6  5  2  0  0  0  0
  8  6  1  0  0  0  0
  9  8  1  0  0  0  0
 10  8  2  0  0  0  0
 10 12  1  0  0  0  0
 11 10  1  0  0  0  0
 12 14  2  0  0  0  0
 13 12  1  0  0  0  0
 14  5  1  0  0  0  0
 14  1  1  0  0  0  0
 15 17  1  0  0  0  0
 15 16  1  0  0  0  0
 15 28  1  0  0  0  0
 18 20  1  0  0  0  0
 19 18  1  0  0  0  0
 20 21  1  0  0  0  0
 20 22  2  0  0  0  0
 22 23  1  0  0  0  0
 24 22  1  0  0  0  0
 24 25  1  0  0  0  0
 26 24  2  0  0  0  0
 27 26  1  0  0  0  0
 28 18  2  0  0  0  0
 28 26  1  0  0  0  0
 29 30  1  0  0  0  0
 29 42  2  0  0  0  0
 30 31  1  0  0  0  0
 31 32  1  0  0  0  0
 31 40  1  0  0  0  0
 32 34  2  0  0  0  0
 33 32  1  0  0  0  0
 34 35  1  0  0  0  0
 34 36  1  0  0  0  0
 36 37  1  0  0  0  0
 38 36  2  0  0  0  0
 38 39  1  0  0  0  0
 40 38  1  0  0  0  0
 41 40  2  0  0  0  0
 41  2  1  0  0  0  0
 42 43  1  0  0  0  0
 42 41  1  0  0  0  0
 44  2  1  0  0  0  0
 44 45  1  0  0  0  0
 44 46  1  0  0  0  0
 47 44  1  0  0  0  0
M  END
