1,3,24
q = -1.0, confidence = 0.116

 47 50  0  0  1  0  0  0  0  0999 V2000
    2.9804   -1.1601   -0.4681 S   0  0  0  0  0  0  0  0  0  0  0  0
   -5.7522    0.7966   -0.0244 O   0  0  0  0  0  0  0  0  0  0  0  0
    0.6223    0.7214   -0.8102 N   0  0  0  0  0  2  0  0  0  0  0  0
   -0.3064    1.5829   -0.6439 N   0  0  0  0  0  0  0  0  0  0  0  0
    1.9000    1.3191   -1.0874 C   0  0  0  0  0  0  0  0  0  0  0  0
    3.0837    0.5549   -0.9579 C   0  0  0  0  0  0  0  0  0  0  0  0
    4.3373    1.1347   -1.2169 C   0  0  0  0  0  0  0  0  0  0  0  0
    5.2406    0.5145   -1.1151 H   0  0  0  0  0  0  0  0  0  0  0  0
    4.4294    2.4786   -1.6010 C   0  0  0  0  0  0  0  0  0  0  0  0
    5.4123    2.9269   -1.8079 H   0  0  0  0  0  0  0  0  0  0  0  0
    3.2544    3.2399   -1.7360 C   0  0  0  0  0  0  0  0  0  0  0  0
    3.3146    4.2927   -2.0509 H   0  0  0  0  0  0  0  0  0  0  0  0
    2.0034    2.6701   -1.4846 C   0  0  0  0  0  0  0  0  0  0  0  0
    1.0764    3.2488   -1.5827 H   0  0  0  0  0  0  0  0  0  0  0  0
    3.2882   -1.0164    1.3849 C   0  0  0  0  0  0  0  0  0  0  0  0
    3.1650   -2.0694    1.7053 H   0  0  0  0  0  0  0  0  0  0  0  0
    4.3452   -0.7073    1.5000 H   0  0  0  0  0  0  0  0  0  0  0  0
    2.5868    1.2947    2.1219 C   0  0  0  0  0  0  0  0  0  0  0  0
    3.5608    1.6789    1.7811 H   0  0  0  0  0  0  0  0  0  0  0  0
    1.6129    2.1842    2.6018 C   0  0  0  0  0  0  0  0  0  0  0  0
    1.8307    3.2622    2.6430 H   0  0  0  0  0  0  0  0  0  0  0  0
    0.3632    1.6998    3.0177 C   0  0  0  0  0  0  0  0  0  0  0  0
   -0.4057    2.3984    3.3815 H   0  0  0  0  0  0  0  0  0  0  0  0
   -1.4247   -1.2951   -0.5368 C   0  0  0  0  0  3  0  0  0  0  0  0
   -2.1889   -0.0985   -0.4288 C   0  0  1  0  0  3  0  0  0  0  0  0
   -1.6118    1.2365   -0.4302 C   0  0  0  0  0  0  0  0  0  0  0  0
   -2.4409    2.3665   -0.2551 C   0  0  0  0  0  0  0  0  0  0  0  0
   -1.9469    3.3482   -0.2625 H   0  0  0  0  0  0  0  0  0  0  0  0
   -3.8250    2.2663   -0.0940 C   0  0  0  0  0  0  0  0  0  0  0  0
   -4.4240    3.1749    0.0449 H   0  0  0  0  0  0  0  0  0  0  0  0
   -4.4233    0.9983   -0.1415 C   0  0  0  0  0  0  0  0  0  0  0  0
   -3.6299   -0.1915   -0.3246 C   0  0  0  0  0  0  0  0  0  0  0  0
   -4.2684   -1.4563   -0.3950 C   0  0  0  0  0  0  0  0  0  0  0  0
   -5.3626   -1.5024   -0.3189 H   0  0  0  0  0  0  0  0  0  0  0  0
   -3.5057   -2.6045   -0.5586 C   0  0  0  0  0  0  0  0  0  0  0  0
   -3.9959   -3.5884   -0.6249 H   0  0  0  0  0  0  0  0  0  0  0  0
   -2.0974   -2.5248   -0.6175 C   0  0  0  0  0  0  0  0  0  0  0  0
   -1.5048   -3.4475   -0.6932 H   0  0  0  0  0  0  0  0  0  0  0  0
   -6.6125    1.9099    0.1610 C   0  0  0  0  0  0  0  0  0  0  0  0
   -7.6366    1.5006    0.2303 H   0  0  0  0  0  0  0  0  0  0  0  0
   -6.3739    2.4584    1.0981 H   0  0  0  0  0  0  0  0  0  0  0  0
   -6.5579    2.6153   -0.6966 H   0  0  0  0  0  0  0  0  0  0  0  0
    0.0958    0.3214    2.9695 C   0  0  0  0  0  0  0  0  0  0  0  0
   -0.8822   -0.0656    3.2925 H   0  0  0  0  0  0  0  0  0  0  0  0
    1.0640   -0.5677    2.4844 C   0  0  0  0  0  0  0  0  0  0  0  0
    0.8436   -1.6439    2.4102 H   0  0  0  0  0  0  0  0  0  0  0  0
    2.3188   -0.0869    2.0468 C   0  0  0  0  0  0  0  0  0  0  0  0
  1 15  1  0  0  0  0
  2 39  1  0  0  0  0
  3  4  1  0  0  0  0
  4 26  2  0  0  0  0
  5  6  1  0  0  0  0
  5  3  1  0  0  0  0
  6  1  1  0  0  0  0
  7  8  1  0  0  0  0
  7  6  2  0  0  0  0
  9  7  1  0  0  0  0
 10  9  1  0  0  0  0
 11  9  2  0  0  0  0
 11 13  1  0  0  0  0
 12 11  1  0  0  0  0
 13  5  2  0  0  0  0
 14 13  1  0  0  0  0
 15 17  1  0  0  0  0
 15 16  1  0  0  0  0
 15 47  1  0  0  0  0
 18 20  1  0  0  0  0
 19 18  1  0  0  0  0
 20 21  1  0  0  0  0
 20 22  2  0  0  0  0
 22 23  1  0  0  0  0
 25 24  1  6  0  0  0
 25 32  1  0  0  0  0
 26 25  1  0  0  0  0
 26 27  1  0  0  0  0
 27 29  2  0  0  0  0
 28 27  1  0  0  0  0
 29 30  1  0  0  0  0
 31 29  1  0  0  0  0
 31  2  1  0  0  0  0
 32 31  2  0  0  0  0
 33 32  1  0  0  0  0
 33 34  1  0  0  0  0
 35 33  2  0  0  0  0
 36 35  1  0  0  0  0
 37 35  1  0  0  0  0
 37 24  2  0  0  0  0
 38 37  1  0  0  0  0
 39 40  1  0  0  0  0
 39 41  1  0  0  0  0
 42 39  1  0  0  0  0
 43 22  1  0  0  0  0
 43 44  1  0  0  0  0
 45 43  2  0  0  0  0
 46 45  1  0  0  0  0
 47 18  2  0  0  0  0
 47 45  1  0  0  0  0
M  END
