1,2,6
q = -1.0, confidence = 0.028

 48 51  0  0  0  0  0  0  0  0999 V2000
   -1.5991    1.4401    1.2725 S   0  0  0  0  0  0  0  0  0  0  0  0
    1.7437   -0.0308   -1.1372 N   0  0  0  0  0  2  0  0  0  0  0  0
    1.7223   -1.3461   -1.2017 C   0  0  0  0  0  0  0  0  0  0  0  0
    2.5315   -1.8829   -1.7326 H   0  0  0  0  0  0  0  0  0  0  0  0
   -1.2620   -1.8631    0.6650 N   0  0  0  0  0  0  0  0  0  0  0  0
   -0.2506   -1.1272    0.1077 C   0  0  0  0  0  2  0  0  0  0  0  0
    3.9654    0.8924   -0.5964 C   0  0  0  0  0  0  0  0  0  0  0  0
   -1.0735   -3.2268    0.3685 C   0  0  0  0  0  0  0  0  0  0  0  0
   -3.0507    1.6871    0.2323 C   0  0  0  0  0  0  0  0  0  0  0  0
    2.8765    0.7434   -1.6445 C   0  0  0  0  0  0  0  0  0  0  0  0
    2.4870    1.7389   -1.9351 H   0  0  0  0  0  0  0  0  0  0  0  0
    3.2882    0.2383   -2.5454 H   0  0  0  0  0  0  0  0  0  0  0  0
    3.8653    1.8826    0.4019 C   0  0  0  0  0  0  0  0  0  0  0  0
    3.0032    2.5695    0.3841 H   0  0  0  0  0  0  0  0  0  0  0  0
   -2.4238   -1.3166    1.3453 C   0  0  0  0  0  0  0  0  0  0  0  0
   -2.8246   -2.0958    2.0259 H   0  0  0  0  0  0  0  0  0  0  0  0
   -3.2293   -1.0847    0.6113 H   0  0  0  0  0  0  0  0  0  0  0  0
    0.5401   -4.6352   -0.8174 C   0  0  0  0  0  0  0  0  0  0  0  0
    1.4594   -4.7635   -1.4083 H   0  0  0  0  0  0  0  0  0  0  0  0
    0.6352   -2.0069   -0.5606 C   0  0  0  0  0  0  0  0  0  0  0  0
   -5.3303    2.1360   -1.3265 C   0  0  0  0  0  0  0  0  0  0  0  0
   -6.2258    2.3143   -1.9405 H   0  0  0  0  0  0  0  0  0  0  0  0
    0.1309   -3.3517   -0.4040 C   0  0  0  0  0  0  0  0  0  0  0  0
   -2.1157   -0.0840    2.1847 C   0  0  0  0  0  0  0  0  0  0  0  0
   -1.2757   -0.2703    2.8840 H   0  0  0  0  0  0  0  0  0  0  0  0
   -3.0104    0.1992    2.7742 H   0  0  0  0  0  0  0  0  0  0  0  0
    6.0472    0.1115    0.4170 C   0  0  0  0  0  0  0  0  0  0  0  0
    6.9036   -0.5802    0.4147 H   0  0  0  0  0  0  0  0  0  0  0  0
   -1.8587   -4.3351    0.7125 C   0  0  0  0  0  0  0  0  0  0  0  0
   -2.7880   -4.2288    1.2916 H   0  0  0  0  0  0  0  0  0  0  0  0
    5.0630    0.0103   -0.5783 C   0  0  0  0  0  0  0  0  0  0  0  0
    5.1532   -0.7623   -1.3597 H   0  0  0  0  0  0  0  0  0  0  0  0
   -3.0473    1.3148   -1.1229 C   0  0  0  0  0  0  0  0  0  0  0  0
   -2.1420    0.8596   -1.5544 H   0  0  0  0  0  0  0  0  0  0  0  0
   -4.1786    2.2988    0.8097 C   0  0  0  0  0  0  0  0  0  0  0  0
   -4.1555    2.6154    1.8637 H   0  0  0  0  0  0  0  0  0  0  0  0
    4.8483    1.9817    1.3979 C   0  0  0  0  0  0  0  0  0  0  0  0
    4.7621    2.7606    2.1714 H   0  0  0  0  0  0  0  0  0  0  0  0
    5.9398    1.0978    1.4101 C   0  0  0  0  0  0  0  0  0  0  0  0
    6.7105    1.1799    2.1919 H   0  0  0  0  0  0  0  0  0  0  0  0
   -0.2401   -5.7462   -0.4684 C   0  0  0  0  0  0  0  0  0  0  0  0
    0.0736   -6.7509   -0.7895 H   0  0  0  0  0  0  0  0  0  0  0  0
   -5.3221    2.5130    0.0266 C   0  0  0  0  0  0  0  0  0  0  0  0
   -6.2064    2.9914    0.4736 H   0  0  0  0  0  0  0  0  0  0  0  0
   -1.4248   -5.6004    0.2856 C   0  0  0  0  0  0  0  0  0  0  0  0
   -2.0208   -6.4891    0.5410 H   0  0  0  0  0  0  0  0  0  0  0  0
   -4.1940    1.5429   -1.8989 C   0  0  0  0  0  0  0  0  0  0  0  0
   -4.1943    1.2560   -2.9611 H   0  0  0  0  0  0  0  0  0  0  0  0
  1 24  1  0  0  0  0
  3  2  1  0  0  0  0
  3 20  2  0  0  0  0
  4  3  1  0  0  0  0
  5 15  1  0  0  0  0
  6  5  1  0  0  0  0
  7 31  2  0  0  0  0
  7 13  1  0  0  0  0
  8  5  1  0  0  0  0
  8 29  1  0  0  0  0
  9 35  1  0  0  0  0
  9  1  1  0  0  0  0
 10  2  1  0  0  0  0
 10  7  1  0  0  0  0
 11 10  1  0  0  0  0
 12 10  1  0  0  0  0
 13 37  2  0  0  0  0
 14 13  1  0  0  0  0
 15 16  1  0  0  0  0
 15 24  1  0  0  0  0
 17 15  1  0  0  0  0
 18 41  2  0  0  0  0
 18 23  1  0  0  0  0
 19 18  1  0  0  0  0
 20 23  1  0  0  0  0
 20  6  1  0  0  0  0
 21 43  1  0  0  0  0
 22 21  1  0  0  0  0
 23  8  2  0  0  0  0
 24 26  1  0  0  0  0
 24 25  1  0  0  0  0
 27 39  2  0  0  0  0
 28 27  1  0  0  0  0
 29 30  1  0  0  0  0
 31 27  1  0  0  0  0
 32 31  1  0  0  0  0
 33  9  2  0  0  0  0
 34 33  1  0  0  0  0
 35 36  1  0  0  0  0
 37 39  1  0  0  0  0
 37 38  1  0  0  0  0
 39 40  1  0  0  0  0
 41 45  1  0  0  0  0
 42 41  1  0  0  0  0
 43 44  1  0  0  0  0
 43 35  2  0  0  0  0
 45 46  1  0  0  0  0
 45 29  2  0  0  0  0
 47 21  2  0  0  0  0
 47 33  1  0  0  0  0
 48 47  1  0  0  0  0
M  END
