1,4,6
q = -1.0

 41 43  0  0  0  0  0  0  0  0999 V2000
    1.8708   -1.4570   -0.3248 S   0  0  2  0  0  3  0  0  0  0  0  0
    2.6796   -2.5455   -0.9797 O   0  0  0  0  0  1  0  0  0  0  0  0
   -0.5442    2.0199   -0.9258 N   0  0  0  0  0  0  0  0  0  0  0  0
    0.2662    1.0185   -0.8428 N   0  0  0  0  0  2  0  0  0  0  0  0
   -1.8454    1.6353   -0.7137 C   0  0  0  0  0  0  0  0  0  0  0  0
   -2.1184    0.2471   -0.4378 C   0  0  0  0  0  2  0  0  0  0  0  0
   -3.4419   -0.1352   -0.1941 C   0  0  0  0  0  0  0  0  0  0  0  0
   -4.4938    0.8084   -0.2400 C   0  0  0  0  0  0  0  0  0  0  0  0
   -4.1991    2.1707   -0.5154 C   0  0  0  0  0  0  0  0  0  0  0  0
   -2.8926    2.5890   -0.7497 C   0  0  0  0  0  0  0  0  0  0  0  0
   -5.9188    0.3720   -0.0321 C   0  0  0  0  0  0  0  0  0  0  0  0
    1.6472    1.2437   -1.0399 C   0  0  0  0  0  0  0  0  0  0  0  0
    2.5285    0.1560   -0.8609 C   0  0  0  0  0  0  0  0  0  0  0  0
    3.8967    0.2747   -1.1250 C   0  0  0  0  0  0  0  0  0  0  0  0
    4.4108    1.5193   -1.5143 C   0  0  0  0  0  0  0  0  0  0  0  0
    3.5461    2.6242   -1.6519 C   0  0  0  0  0  0  0  0  0  0  0  0
    2.1723    2.4946   -1.4266 C   0  0  0  0  0  0  0  0  0  0  0  0
    2.3802   -1.4117    1.4896 C   0  0  0  0  0  0  0  0  0  0  0  0
    1.7346   -0.2704    2.2020 C   0  0  0  0  0  0  0  0  0  0  0  0
    0.4216   -0.4046    2.7055 C   0  0  0  0  0  0  0  0  0  0  0  0
   -0.2479    0.7024    3.2447 C   0  0  0  0  0  0  0  0  0  0  0  0
    0.3819    1.9565    3.2847 C   0  0  0  0  0  0  0  0  0  0  0  0
    1.6915    2.0976    2.7974 C   0  0  0  0  0  0  0  0  0  0  0  0
    2.3631    0.9914    2.2580 C   0  0  0  0  0  0  0  0  0  0  0  0
   -3.6578   -1.1919    0.0283 H   0  0  0  0  0  0  0  0  0  0  0  0
   -5.0207    2.9032   -0.5406 H   0  0  0  0  0  0  0  0  0  0  0  0
   -2.6483    3.6415   -0.9542 H   0  0  0  0  0  0  0  0  0  0  0  0
    4.5359   -0.6170   -1.0324 H   0  0  0  0  0  0  0  0  0  0  0  0
    5.4858    1.6301   -1.7194 H   0  0  0  0  0  0  0  0  0  0  0  0
    3.9523    3.5999   -1.9580 H   0  0  0  0  0  0  0  0  0  0  0  0
    1.4752    3.3336   -1.5526 H   0  0  0  0  0  0  0  0  0  0  0  0
   -6.5013    1.1303    0.5289 H   0  0  0  0  0  0  0  0  0  0  0  0
   -6.4299    0.2335   -1.0099 H   0  0  0  0  0  0  0  0  0  0  0  0
   -5.9767   -0.5924    0.5079 H   0  0  0  0  0  0  0  0  0  0  0  0
    3.4864   -1.3776    1.4536 H   0  0  0  0  0  0  0  0  0  0  0  0
    2.0440   -2.4092    1.8346 H   0  0  0  0  0  0  0  0  0  0  0  0
   -0.0832   -1.3813    2.6520 H   0  0  0  0  0  0  0  0  0  0  0  0
   -1.2750    0.5855    3.6210 H   0  0  0  0  0  0  0  0  0  0  0  0
   -0.1487    2.8272    3.6989 H   0  0  0  0  0  0  0  0  0  0  0  0
    2.1921    3.0770    2.8326 H   0  0  0  0  0  0  0  0  0  0  0  0
    3.3837    1.1076    1.8613 H   0  0  0  0  0  0  0  0  0  0  0  0
  1  2  1  6  0  0  0
  1 18  1  0  0  0  0
  3  4  1  0  0  0  0
  3  5  2  0  0  0  0
  5  6  1  0  0  0  0
  6  7  1  0  0  0  0
  7 25  1  0  0  0  0
  8  7  2  0  0  0  0
  8 11  1  0  0  0  0
  9  8  1  0  0  0  0
 10  5  1  0  0  0  0
 10  9  2  0  0  0  0
 11 34  1  0  0  0  0
 11 32  1  0  0  0  0
 12 13  1  0  0  0  0
 12  4  1  0  0  0  0
 13  1  1  0  0  0  0
 14 28  1  0  0  0  0
 14 13  2  0  0  0  0
 15 14  1  0  0  0  0
 16 15  2  0  0  0  0
 16 17  1  0  0  0  0
 17 12  2  0  0  0  0
 18 36  1  0  0  0  0
 18 19  1  0  0  0  0
 19 24  2  0  0  0  0
 19 20  1  0  0  0  0
 20 21  2  0  0  0  0
 21 22  1  0  0  0  0
 21 38  1  0  0  0  0
 22 39  1  0  0  0  0
 23 40  1  0  0  0  0
 23 22  2  0  0  0  0
 24 23  1  0  0  0  0
 26  9  1  0  0  0  0
 27 10  1  0  0  0  0
 29 15  1  0  0  0  0
 30 16  1  0  0  0  0
 31 17  1  0  0  0  0
 33 11  1  0  0  0  0
 35 18  1  0  0  0  0
 37 20  1  0  0  0  0
 41 24  1  0  0  0  0
M  END
