1,3,5
q = -1.0

 40 42  0  0  0  0  0  0  0  0999 V2000
   -1.8514   -1.6644   -0.8568 S   0  0  0  0  0  0  0  0  0  0  0  0
    0.4029    1.9920   -0.6281 N   0  0  0  0  0  0  0  0  0  0  0  0
   -0.3465    0.9548   -0.7750 N   0  0  0  0  0  2  0  0  0  0  0  0
    1.7225    1.6412   -0.4680 C   0  0  0  0  0  0  0  0  0  0  0  0
    2.0779    0.2423   -0.4683 C   0  0  0  0  0  2  0  0  0  0  0  0
    3.4150   -0.1063   -0.2823 C   0  0  0  0  0  0  0  0  0  0  0  0
    4.4114    0.8871   -0.1085 C   0  0  0  0  0  0  0  0  0  0  0  0
    4.0410    2.2551   -0.1136 C   0  0  0  0  0  0  0  0  0  0  0  0
    2.7116    2.6379   -0.2897 C   0  0  0  0  0  0  0  0  0  0  0  0
    5.8499    0.4793    0.0630 C   0  0  0  0  0  0  0  0  0  0  0  0
   -1.7380    1.1354   -0.9323 C   0  0  0  0  0  0  0  0  0  0  0  0
   -2.5605   -0.0174   -1.0112 C   0  0  0  0  0  0  0  0  0  0  0  0
   -3.9461    0.1233   -1.1920 C   0  0  0  0  0  0  0  0  0  0  0  0
   -4.5220    1.3992   -1.2690 C   0  0  0  0  0  0  0  0  0  0  0  0
   -3.7056    2.5425   -1.1767 C   0  0  0  0  0  0  0  0  0  0  0  0
   -2.3240    2.4167   -1.0142 C   0  0  0  0  0  0  0  0  0  0  0  0
   -2.2282   -2.0249    0.9531 C   0  0  0  0  0  0  0  0  0  0  0  0
   -1.6776   -0.9781    1.8712 C   0  0  0  0  0  0  0  0  0  0  0  0
   -0.3414   -1.0581    2.3226 C   0  0  0  0  0  0  0  0  0  0  0  0
    0.2146   -0.0146    3.0751 C   0  0  0  0  0  0  0  0  0  0  0  0
   -0.5515    1.1221    3.3816 C   0  0  0  0  0  0  0  0  0  0  0  0
   -1.8845    1.2036    2.9495 C   0  0  0  0  0  0  0  0  0  0  0  0
   -2.4448    0.1579    2.1999 C   0  0  0  0  0  0  0  0  0  0  0  0
    2.4097    3.6954   -0.2890 H   0  0  0  0  0  0  0  0  0  0  0  0
   -2.4922    2.0883    3.1926 H   0  0  0  0  0  0  0  0  0  0  0  0
    0.2717   -1.9327    2.0553 H   0  0  0  0  0  0  0  0  0  0  0  0
   -3.4872    0.2293    1.8524 H   0  0  0  0  0  0  0  0  0  0  0  0
    1.2605   -0.0847    3.4089 H   0  0  0  0  0  0  0  0  0  0  0  0
    4.8179    3.0224    0.0263 H   0  0  0  0  0  0  0  0  0  0  0  0
   -1.7512   -3.0151    1.0921 H   0  0  0  0  0  0  0  0  0  0  0  0
   -3.3279   -2.1332    1.0238 H   0  0  0  0  0  0  0  0  0  0  0  0
    3.6880   -1.1733   -0.2679 H   0  0  0  0  0  0  0  0  0  0  0  0
   -0.1086    1.9459    3.9616 H   0  0  0  0  0  0  0  0  0  0  0  0
   -4.5697   -0.7802   -1.2680 H   0  0  0  0  0  0  0  0  0  0  0  0
   -1.6609    3.2894   -0.9440 H   0  0  0  0  0  0  0  0  0  0  0  0
   -5.6082    1.5025   -1.4085 H   0  0  0  0  0  0  0  0  0  0  0  0
   -4.1554    3.5447   -1.2402 H   0  0  0  0  0  0  0  0  0  0  0  0
    5.9516   -0.3189    0.8265 H   0  0  0  0  0  0  0  0  0  0  0  0
    6.2533    0.0606   -0.8840 H   0  0  0  0  0  0  0  0  0  0  0  0
    6.4921    1.3316    0.3569 H   0  0  0  0  0  0  0  0  0  0  0  0
  1 17  1  0  0  0  0
  2  4  2  0  0  0  0
  3  2  1  0  0  0  0
  4  9  1  0  0  0  0
  5  4  1  0  0  0  0
  5  6  1  0  0  0  0
  6 32  1  0  0  0  0
  6  7  2  0  0  0  0
  7 10  1  0  0  0  0
  8  7  1  0  0  0  0
  8 29  1  0  0  0  0
  9 24  1  0  0  0  0
  9  8  2  0  0  0  0
 10 40  1  0  0  0  0
 10 38  1  0  0  0  0
 11  3  1  0  0  0  0
 12 11  1  0  0  0  0
 12  1  1  0  0  0  0
 13 12  2  0  0  0  0
 14 13  1  0  0  0  0
 14 15  2  0  0  0  0
 15 16  1  0  0  0  0
 16 35  1  0  0  0  0
 16 11  2  0  0  0  0
 17 31  1  0  0  0  0
 17 30  1  0  0  0  0
 17 18  1  0  0  0  0
 18 23  2  0  0  0  0
 18 19  1  0  0  0  0
 19 20  2  0  0  0  0
 20 21  1  0  0  0  0
 20 28  1  0  0  0  0
 21 33  1  0  0  0  0
 22 25  1  0  0  0  0
 22 21  2  0  0  0  0
 23 22  1  0  0  0  0
 26 19  1  0  0  0  0
 27 23  1  0  0  0  0
 34 13  1  0  0  0  0
 36 14  1  0  0  0  0
 37 15  1  0  0  0  0
 39 10  1  0  0  0  0
M  END
