2,3,6
q = -1.0

 23 23  0  0  1  0  0  0  0  0999 V2000
   -0.5453    0.0181    2.0531 S   0  0  0  0  0  1  0  0  0  0  0  0
   -1.2978    2.0575   -0.9793 S   0  0  0  0  0  1  0  0  0  0  0  0
   -0.0457   -0.6356   -1.4640 N   0  0  0  0  0  2  0  0  0  0  0  0
    0.9156    1.1600    1.9678 C   0  0  0  0  0  0  0  0  0  0  0  0
    0.8826    2.1486    0.7889 C   0  0  0  0  0  0  0  0  0  0  0  0
    0.2980    1.4925   -0.4582 C   0  0  1  0  0  3  0  0  0  0  0  0
    0.8266    0.2534   -0.9153 C   0  0  1  0  0  3  0  0  0  0  0  0
    2.2100   -0.1841   -0.5804 C   0  0  0  0  0  0  0  0  0  0  0  0
    3.3157    0.6433   -0.8655 C   0  0  0  0  0  0  0  0  0  0  0  0
    4.6171    0.2053   -0.5825 C   0  0  0  0  0  0  0  0  0  0  0  0
    4.8256   -1.0597   -0.0084 C   0  0  0  0  0  0  0  0  0  0  0  0
    3.7285   -1.8900    0.2771 C   0  0  0  0  0  0  0  0  0  0  0  0
    2.4275   -1.4581   -0.0127 C   0  0  0  0  0  0  0  0  0  0  0  0
    0.9463    1.7059    2.9328 H   0  0  0  0  0  0  0  0  0  0  0  0
    1.8192    0.5194    1.9245 H   0  0  0  0  0  0  0  0  0  0  0  0
    0.2452    3.0171    1.0404 H   0  0  0  0  0  0  0  0  0  0  0  0
    1.9078    2.5398    0.6144 H   0  0  0  0  0  0  0  0  0  0  0  0
    0.3513   -1.4716   -1.9008 H   0  0  0  0  0  0  0  0  0  0  0  0
    3.1436    1.6265   -1.3293 H   0  0  0  0  0  0  0  0  0  0  0  0
    5.4759    0.8529   -0.8158 H   0  0  0  0  0  0  0  0  0  0  0  0
    5.8475   -1.4001    0.2176 H   0  0  0  0  0  0  0  0  0  0  0  0
    3.8887   -2.8772    0.7365 H   0  0  0  0  0  0  0  0  0  0  0  0
    1.5557   -2.0812    0.2400 H   0  0  0  0  0  0  0  0  0  0  0  0
  4  1  1  0  0  0  0
  4 14  1  0  0  0  0
  5 16  1  0  0  0  0
  5  4  1  0  0  0  0
  6  2  1  1  0  0  0
  6  5  1  0  0  0  0
  7  3  1  1  0  0  0
  7  8  1  0  0  0  0
  7  6  1  0  0  0  0
  8 13  1  0  0  0  0
  9 10  1  0  0  0  0
  9  8  2  0  0  0  0
 10 11  2  0  0  0  0
 11 21  1  0  0  0  0
 11 12  1  0  0  0  0
 12 22  1  0  0  0  0
 13 23  1  0  0  0  0
 13 12  2  0  0  0  0
 15  4  1  0  0  0  0
 17  5  1  0  0  0  0
 18  3  1  0  0  0  0
 19  9  1  0  0  0  0
 20 10  1  0  0  0  0
M  END
