6,7,10
q = -1.0, confidence = 0.024

 37 39  0  0  0  0  0  0  0  0999 V2000
    4.5299   -2.7415    0.0041 C   0  0  0  0  0  0  0  0  0  0  0  0
    5.5390   -3.1909    0.0252 H   0  0  0  0  0  0  0  0  0  0  0  0
    4.0041   -3.0522   -0.9235 H   0  0  0  0  0  0  0  0  0  0  0  0
    3.9482   -3.0932    0.8825 H   0  0  0  0  0  0  0  0  0  0  0  0
    1.5151    1.3275   -0.0010 C   0  0  0  0  0  0  0  0  0  0  0  0
   -3.1229   -0.1915   -0.2212 S   0  0  0  0  0  0  0  0  0  0  0  0
   -0.6766    1.5738   -0.0718 N   0  0  0  0  0  2  0  0  0  0  0  0
    0.4645    2.1893   -0.0173 N   0  0  0  0  0  0  0  0  0  0  0  0
   -3.1052    1.6154   -0.1302 C   0  0  0  0  0  0  0  0  0  0  0  0
    1.2475   -0.0879   -0.0349 C   0  0  0  0  0  3  0  0  0  0  0  0
    4.7249   -1.3319    0.0419 O   0  0  0  0  0  0  0  0  0  0  0  0
    5.2911    1.3662    0.1099 C   0  0  0  0  0  0  0  0  0  0  0  0
    6.1073    0.6311    0.1194 H   0  0  0  0  0  0  0  0  0  0  0  0
    3.1690    3.2193    0.0831 C   0  0  0  0  0  0  0  0  0  0  0  0
    2.3328    3.9319    0.0717 H   0  0  0  0  0  0  0  0  0  0  0  0
   -1.8713    2.3162   -0.0798 C   0  0  0  0  0  0  0  0  0  0  0  0
   -4.3171    2.3222   -0.1593 C   0  0  0  0  0  0  0  0  0  0  0  0
   -5.2637    1.7645   -0.2257 H   0  0  0  0  0  0  0  0  0  0  0  0
    2.8698    1.8330    0.0485 C   0  0  0  0  0  3  0  0  0  0  0  0
   -3.0964    4.4195   -0.0523 C   0  0  0  0  0  0  0  0  0  0  0  0
   -3.0924    5.5195   -0.0217 H   0  0  0  0  0  0  0  0  0  0  0  0
    3.9529    0.8941    0.0621 C   0  0  0  0  0  0  0  0  0  0  0  0
    5.5563    2.7309    0.1436 C   0  0  0  0  0  0  0  0  0  0  0  0
    6.5961    3.0887    0.1806 H   0  0  0  0  0  0  0  0  0  0  0  0
    3.6496   -0.5200    0.0254 C   0  0  0  0  0  0  0  0  0  0  0  0
    2.3280   -0.9877   -0.0216 C   0  0  0  0  0  0  0  0  0  0  0  0
    2.1092   -2.0637   -0.0445 H   0  0  0  0  0  0  0  0  0  0  0  0
   -3.7131   -0.6380    1.4571 C   0  0  0  0  0  0  0  0  0  0  0  0
   -3.0836   -0.1510    2.2234 H   0  0  0  0  0  0  0  0  0  0  0  0
   -3.5955   -1.7372    1.5180 H   0  0  0  0  0  0  0  0  0  0  0  0
   -4.7769   -0.3550    1.5669 H   0  0  0  0  0  0  0  0  0  0  0  0
    4.4882    3.6599    0.1300 C   0  0  0  0  0  0  0  0  0  0  0  0
    4.7022    4.7393    0.1565 H   0  0  0  0  0  0  0  0  0  0  0  0
   -1.8824    3.7286   -0.0413 C   0  0  0  0  0  0  0  0  0  0  0  0
   -0.9164    4.2491   -0.0017 H   0  0  0  0  0  0  0  0  0  0  0  0
   -4.3183    3.7234   -0.1101 C   0  0  0  0  0  0  0  0  0  0  0  0
   -5.2714    4.2719   -0.1283 H   0  0  0  0  0  0  0  0  0  0  0  0
  1  2  1  0  0  0  0
  1 11  1  0  0  0  0
  1  4  1  0  0  0  0
  3  1  1  0  0  0  0
  5 19  1  0  0  0  0
  6  9  1  0  0  0  0
  6 28  1  0  0  0  0
  7  8  1  0  0  0  0
  8  5  2  0  0  0  0
  9 16  1  0  0  0  0
 10 26  2  0  0  0  0
 10  5  1  0  0  0  0
 12 13  1  0  0  0  0
 12 23  2  0  0  0  0
 14 32  2  0  0  0  0
 15 14  1  0  0  0  0
 16  7  1  0  0  0  0
 16 34  2  0  0  0  0
 17  9  2  0  0  0  0
 17 36  1  0  0  0  0
 18 17  1  0  0  0  0
 19 22  1  0  0  0  0
 19 14  1  0  0  0  0
 20 34  1  0  0  0  0
 20 21  1  0  0  0  0
 22 12  1  0  0  0  0
 23 24  1  0  0  0  0
 25 11  1  0  0  0  0
 25 22  2  0  0  0  0
 26 25  1  0  0  0  0
 27 26  1  0  0  0  0
 28 30  1  0  0  0  0
 28 31  1  0  0  0  0
 28 29  1  0  0  0  0
 32 23  1  0  0  0  0
 32 33  1  0  0  0  0
 34 35  1  0  0  0  0
 36 20  2  0  0  0  0
 37 36  1  0  0  0  0
M  END
