1,4,18
q = -1.0

 36 37  0  0  1  0  0  0  0  0999 V2000
    1.3245   -2.7876   -0.3364 S   0  0  0  0  0  0  0  0  0  0  0  0
   -1.1498    1.7189   -0.2321 N   0  0  0  0  0  0  0  0  0  0  0  0
   -1.9146    2.3389   -0.5026 H   0  0  0  0  0  0  0  0  0  0  0  0
   -0.6321   -0.5132    0.2240 N   0  0  0  0  0  2  0  0  0  0  0  0
   -1.5185    0.4339    0.0030 C   0  0  2  0  0  3  0  0  0  0  0  0
   -2.9954    0.2039   -0.0277 C   0  0  0  0  0  0  0  0  0  0  0  0
   -3.8532    0.9818    0.7782 C   0  0  0  0  0  0  0  0  0  0  0  0
   -3.4232    1.7309    1.4609 H   0  0  0  0  0  0  0  0  0  0  0  0
   -5.2412    0.7849    0.7296 C   0  0  0  0  0  0  0  0  0  0  0  0
   -5.9013    1.3891    1.3699 H   0  0  0  0  0  0  0  0  0  0  0  0
   -5.7851   -0.1838   -0.1281 C   0  0  0  0  0  0  0  0  0  0  0  0
   -6.8742   -0.3363   -0.1672 H   0  0  0  0  0  0  0  0  0  0  0  0
   -4.9377   -0.9558   -0.9403 C   0  0  0  0  0  0  0  0  0  0  0  0
   -5.3620   -1.7061   -1.6242 H   0  0  0  0  0  0  0  0  0  0  0  0
   -3.5505   -0.7645   -0.8921 C   0  0  0  0  0  0  0  0  0  0  0  0
   -2.8849   -1.3516   -1.5429 H   0  0  0  0  0  0  0  0  0  0  0  0
    0.1127    2.3422   -0.0967 C   0  0  2  0  0  3  0  0  0  0  0  0
    1.3260    1.6227    0.0335 C   0  0  0  0  0  2  0  0  0  0  0  0
    2.5011    2.3843    0.2210 C   0  0  0  0  0  0  0  0  0  0  0  0
    3.4548    1.8455    0.3182 H   0  0  0  0  0  0  0  0  0  0  0  0
    2.4831    3.7865    0.2469 C   0  0  0  0  0  0  0  0  0  0  0  0
    3.4239    4.3404    0.3895 H   0  0  0  0  0  0  0  0  0  0  0  0
    1.2737    4.4806    0.0778 C   0  0  0  0  0  0  0  0  0  0  0  0
    1.2479    5.5807    0.0841 H   0  0  0  0  0  0  0  0  0  0  0  0
    0.0916    3.7574   -0.0917 C   0  0  0  0  0  0  0  0  0  0  0  0
   -0.8706    4.2853   -0.2075 H   0  0  0  0  0  0  0  0  0  0  0  0
   -1.0218   -1.7979    0.8110 C   0  0  0  0  0  0  0  0  0  0  0  0
   -2.1246   -1.8910    0.9055 H   0  0  0  0  0  0  0  0  0  0  0  0
   -0.6109   -1.8417    1.8442 H   0  0  0  0  0  0  0  0  0  0  0  0
   -0.4756   -2.9700    0.0022 C   0  0  0  0  0  0  0  0  0  0  0  0
   -0.9427   -3.0095   -1.0031 H   0  0  0  0  0  0  0  0  0  0  0  0
   -0.6633   -3.9392    0.5065 H   0  0  0  0  0  0  0  0  0  0  0  0
    2.0710   -3.2893    1.2489 C   0  0  0  0  0  0  0  0  0  0  0  0
    2.0508   -4.3909    1.3577 H   0  0  0  0  0  0  0  0  0  0  0  0
    1.5708   -2.7928    2.1019 H   0  0  0  0  0  0  0  0  0  0  0  0
    3.1118   -2.9167    1.1819 H   0  0  0  0  0  0  0  0  0  0  0  0
  1 30  1  0  0  0  0
  1 33  1  0  0  0  0
  2  5  1  0  0  0  0
  3  2  1  0  0  0  0
  4 27  1  0  0  0  0
  5  4  1  6  0  0  0
  6  5  1  0  0  0  0
  6  7  1  0  0  0  0
  7  8  1  0  0  0  0
  9  7  2  0  0  0  0
  9 10  1  0  0  0  0
 11  9  1  0  0  0  0
 12 11  1  0  0  0  0
 13 15  1  0  0  0  0
 13 11  2  0  0  0  0
 14 13  1  0  0  0  0
 15  6  2  0  0  0  0
 16 15  1  0  0  0  0
 17  2  1  1  0  0  0
 17 25  1  0  0  0  0
 17 18  1  0  0  0  0
 18 19  1  0  0  0  0
 19 21  2  0  0  0  0
 19 20  1  0  0  0  0
 21 22  1  0  0  0  0
 23 24  1  0  0  0  0
 23 21  1  0  0  0  0
 25 23  2  0  0  0  0
 26 25  1  0  0  0  0
 27 28  1  0  0  0  0
 27 29  1  0  0  0  0
 30 32  1  0  0  0  0
 30 27  1  0  0  0  0
 31 30  1  0  0  0  0
 33 34  1  0  0  0  0
 33 35  1  0  0  0  0
 36 33  1  0  0  0  0
M  END
