1,3,4
q = -1.0, confidence = 0.022

 37 39  0  0  0  0  0  0  0  0999 V2000
    1.5709   -1.7050   -0.8669 S   0  0  0  0  0  0  0  0  0  0  0  0
   -0.5493    2.0291   -0.6109 N   0  0  0  0  0  0  0  0  0  0  0  0
    0.1596    0.9668   -0.7658 N   0  0  0  0  0  2  0  0  0  0  0  0
   -2.2857    0.3408   -0.4527 C   0  0  0  0  0  2  0  0  0  0  0  0
   -1.8834    1.7258   -0.4462 C   0  0  0  0  0  0  0  0  0  0  0  0
   -2.8284    2.7649   -0.2620 C   0  0  0  0  0  0  0  0  0  0  0  0
   -2.4795    3.8078   -0.2616 H   0  0  0  0  0  0  0  0  0  0  0  0
   -4.1729    2.4348   -0.0831 C   0  0  0  0  0  0  0  0  0  0  0  0
   -4.9216    3.2279    0.0600 H   0  0  0  0  0  0  0  0  0  0  0  0
   -4.5713    1.0809   -0.0845 C   0  0  0  0  0  0  0  0  0  0  0  0
   -5.6349    0.8316    0.0580 H   0  0  0  0  0  0  0  0  0  0  0  0
   -3.6390    0.0399   -0.2641 C   0  0  0  0  0  0  0  0  0  0  0  0
   -3.9573   -1.0133   -0.2561 H   0  0  0  0  0  0  0  0  0  0  0  0
    1.5572    1.0979   -0.9304 C   0  0  0  0  0  0  0  0  0  0  0  0
    2.1871    2.3579   -1.0107 C   0  0  0  0  0  0  0  0  0  0  0  0
    1.5557    3.2532   -0.9337 H   0  0  0  0  0  0  0  0  0  0  0  0
    3.5715    2.4353   -1.1806 C   0  0  0  0  0  0  0  0  0  0  0  0
    4.0564    3.4210   -1.2429 H   0  0  0  0  0  0  0  0  0  0  0  0
    4.3456    1.2639   -1.2815 C   0  0  0  0  0  0  0  0  0  0  0  0
    5.4341    1.3290   -1.4267 H   0  0  0  0  0  0  0  0  0  0  0  0
    3.7254    0.0088   -1.2062 C   0  0  0  0  0  0  0  0  0  0  0  0
    4.3163   -0.9158   -1.2892 H   0  0  0  0  0  0  0  0  0  0  0  0
    2.3367   -0.0834   -1.0185 C   0  0  0  0  0  0  0  0  0  0  0  0
    1.9436   -2.0845    0.9404 C   0  0  0  0  0  0  0  0  0  0  0  0
    1.4358   -3.0595    1.0775 H   0  0  0  0  0  0  0  0  0  0  0  0
    3.0396   -2.2285    1.0054 H   0  0  0  0  0  0  0  0  0  0  0  0
    1.4307   -1.0242    1.8647 C   0  0  0  0  0  0  0  0  0  0  0  0
    0.0949   -1.0642    2.3226 C   0  0  0  0  0  0  0  0  0  0  0  0
   -0.5464   -1.9187    2.0562 H   0  0  0  0  0  0  0  0  0  0  0  0
   -0.4250   -0.0064    3.0810 C   0  0  0  0  0  0  0  0  0  0  0  0
   -1.4709   -0.0453    3.4200 H   0  0  0  0  0  0  0  0  0  0  0  0
    0.3775    1.1050    3.3869 C   0  0  0  0  0  0  0  0  0  0  0  0
   -0.0369    1.9403    3.9717 H   0  0  0  0  0  0  0  0  0  0  0  0
    1.7104    1.1465    2.9487 C   0  0  0  0  0  0  0  0  0  0  0  0
    2.3464    2.0109    3.1920 H   0  0  0  0  0  0  0  0  0  0  0  0
    2.2345    0.0863    2.1932 C   0  0  0  0  0  0  0  0  0  0  0  0
    3.2771    0.1263    1.8414 H   0  0  0  0  0  0  0  0  0  0  0  0
  1 24  1  0  0  0  0
  2  5  2  0  0  0  0
  3  2  1  0  0  0  0
  4  5  1  0  0  0  0
  4 12  1  0  0  0  0
  5  6  1  0  0  0  0
  6  7  1  0  0  0  0
  6  8  2  0  0  0  0
  8  9  1  0  0  0  0
 10  8  1  0  0  0  0
 10 11  1  0  0  0  0
 12 13  1  0  0  0  0
 12 10  2  0  0  0  0
 14  3  1  0  0  0  0
 15 16  1  0  0  0  0
 15 14  1  0  0  0  0
 17 15  2  0  0  0  0
 18 17  1  0  0  0  0
 19 21  2  0  0  0  0
 19 17  1  0  0  0  0
 20 19  1  0  0  0  0
 21 23  1  0  0  0  0
 22 21  1  0  0  0  0
 23 14  2  0  0  0  0
 23  1  1  0  0  0  0
 24 26  1  0  0  0  0
 24 25  1  0  0  0  0
 24 27  1  0  0  0  0
 27 36  2  0  0  0  0
 27 28  1  0  0  0  0
 28 30  2  0  0  0  0
 29 28  1  0  0  0  0
 30 32  1  0  0  0  0
 30 31  1  0  0  0  0
 32 33  1  0  0  0  0
 34 35  1  0  0  0  0
 34 32  2  0  0  0  0
 36 34  1  0  0  0  0
 37 36  1  0  0  0  0
M  END
