1,3,15
q = -1.0, confidence = 0.002

 20 20  0  0  1  0  0  0  0  0999 V2000
   -0.2512    1.9506   -1.5528 S   0  0  0  0  0  1  0  0  0  0  0  0
   -4.4389   -1.6328    2.1685 S   0  0  0  0  0  0  0  0  0  0  0  0
   -2.4581    1.3020    0.3587 N   0  0  0  0  0  2  0  0  0  0  0  0
   -2.2534    2.6408    0.1369 N   0  0  0  0  0  0  0  0  0  0  0  0
   -2.8828    3.3065    0.5973 H   0  0  0  0  0  0  0  0  0  0  0  0
   -1.1400    4.3777   -0.9152 N   0  0  0  0  0  0  0  0  0  0  0  0
   -1.7501    5.0774   -0.4912 H   0  0  0  0  0  0  0  0  0  0  0  0
   -0.4437    4.6937   -1.5911 H   0  0  0  0  0  0  0  0  0  0  0  0
   -3.4043    0.8443    1.1799 C   0  0  0  0  0  0  0  0  0  0  0  0
   -3.4124   -0.5860    1.2178 C   0  0  0  0  0  0  0  0  0  0  0  0
   -3.6454   -3.0200    1.5189 C   0  0  0  0  0  3  0  0  0  0  0  0
   -3.9742   -4.0171    1.8410 H   0  0  0  0  0  0  0  0  0  0  0  0
   -2.6346   -2.7068    0.6118 C   0  0  0  0  0  0  0  0  0  0  0  0
   -2.0305   -3.4700    0.1032 H   0  0  0  0  0  0  0  0  0  0  0  0
   -2.4884   -1.3092    0.4230 C   0  0  0  0  0  3  0  0  0  0  0  0
   -1.2834    3.0505   -0.7241 C   0  0  1  0  0  3  0  0  0  0  0  0
   -4.3276    1.7437    1.9409 C   0  0  0  0  0  0  0  0  0  0  0  0
   -3.7672    2.4541    2.5859 H   0  0  0  0  0  0  0  0  0  0  0  0
   -4.9937    1.1568    2.5984 H   0  0  0  0  0  0  0  0  0  0  0  0
   -4.9762    2.3308    1.2553 H   0  0  0  0  0  0  0  0  0  0  0  0
  3  9  1  0  0  0  0
  4  3  1  0  0  0  0
  4  5  1  0  0  0  0
  6 16  1  0  0  0  0
  6  7  1  0  0  0  0
  8  6  1  0  0  0  0
  9 10  2  0  0  0  0
  9 17  1  0  0  0  0
 10  2  1  0  0  0  0
 11 12  1  0  0  0  0
 11  2  1  0  0  0  0
 13 11  1  0  0  0  0
 14 13  1  0  0  0  0
 15 13  2  0  0  0  0
 15 10  1  0  0  0  0
 16  1  1  1  0  0  0
 16  4  1  0  0  0  0
 17 18  1  0  0  0  0
 17 19  1  0  0  0  0
 20 17  1  0  0  0  0
M  END
