1,3,12
q = -1.0

 24 25  0  0  0  0  0  0  0  0999 V2000
    1.4477    2.1763   -0.1599 S   0  0  0  0  0  1  0  0  0  0  0  0
    4.3585   -2.2581    0.0862 O   0  0  0  0  0  0  0  0  0  0  0  0
    2.8417   -0.4691   -0.0052 N   0  0  0  0  0  2  0  0  0  0  0  0
    3.2002    1.9223   -0.0868 C   0  0  0  0  0  0  0  0  0  0  0  0
    3.7478    0.6003   -0.0186 C   0  0  0  0  0  0  0  0  0  0  0  0
    5.1614    0.4632    0.0306 C   0  0  0  0  0  0  0  0  0  0  0  0
    5.9970    1.5896    0.0147 C   0  0  0  0  0  0  0  0  0  0  0  0
    5.4544    2.8840   -0.0522 C   0  0  0  0  0  0  0  0  0  0  0  0
    4.0616    3.0384   -0.1027 C   0  0  0  0  0  0  0  0  0  0  0  0
    3.2025   -1.8009    0.0475 C   0  0  0  0  0  0  0  0  0  0  0  0
    2.0019   -2.7085    0.0480 C   0  0  0  0  0  0  0  0  0  0  0  0
    0.7043   -2.1314    0.0136 C   0  0  0  0  0  3  0  0  0  0  0  0
   -0.3905   -3.0220    0.0062 C   0  0  0  0  0  0  0  0  0  0  0  0
   -0.2041   -4.4189    0.0360 C   0  0  0  0  0  0  0  0  0  0  0  0
    1.0892   -4.9645    0.0714 C   0  0  0  0  0  0  0  0  0  0  0  0
    2.1942   -4.0988    0.0762 C   0  0  0  0  0  0  0  0  0  0  0  0
    5.5694   -0.5524    0.0808 H   0  0  0  0  0  0  0  0  0  0  0  0
    7.0894    1.4474    0.0550 H   0  0  0  0  0  0  0  0  0  0  0  0
    6.1094    3.7704   -0.0651 H   0  0  0  0  0  0  0  0  0  0  0  0
    3.6084    4.0415   -0.1566 H   0  0  0  0  0  0  0  0  0  0  0  0
   -1.4247   -2.6431   -0.0250 H   0  0  0  0  0  0  0  0  0  0  0  0
   -1.0849   -5.0834    0.0302 H   0  0  0  0  0  0  0  0  0  0  0  0
    1.2331   -6.0570    0.0936 H   0  0  0  0  0  0  0  0  0  0  0  0
    3.2341   -4.4639    0.1009 H   0  0  0  0  0  0  0  0  0  0  0  0
  1  4  1  0  0  0  0
  3 10  1  0  0  0  0
  4  5  1  0  0  0  0
  5  3  1  0  0  0  0
  5  6  2  0  0  0  0
  6 17  1  0  0  0  0
  7  6  1  0  0  0  0
  7 18  1  0  0  0  0
  8  7  2  0  0  0  0
  9  4  2  0  0  0  0
  9  8  1  0  0  0  0
 10 11  1  0  0  0  0
 10  2  2  0  0  0  0
 11 16  1  0  0  0  0
 12 11  2  0  0  0  0
 13 12  1  0  0  0  0
 13 14  2  0  0  0  0
 14 15  1  0  0  0  0
 15 16  2  0  0  0  0
 15 23  1  0  0  0  0
 16 24  1  0  0  0  0
 19  8  1  0  0  0  0
 20  9  1  0  0  0  0
 21 13  1  0  0  0  0
 22 14  1  0  0  0  0
M  END
