1,3,6
q = -1.0, confidence = 0.004

 32 33  0  0  0  0  0  0  0  0999 V2000
   -2.1307    0.7517    0.0309 S   0  0  2  0  0  3  0  0  0  0  0  0
   -3.1967    1.3852   -0.8234 O   0  0  0  0  0  1  0  0  0  0  0  0
   -0.0243   -1.3852    0.0119 N   0  0  0  0  0  2  0  0  0  0  0  0
   -1.5771   -3.3374   -0.1244 C   0  0  0  0  0  0  0  0  0  0  0  0
   -0.7489   -4.0598   -0.1390 H   0  0  0  0  0  0  0  0  0  0  0  0
    2.1508    0.0849   -0.0959 C   0  0  0  0  0  2  0  0  0  0  0  0
    1.0996   -2.0728    0.1117 C   0  0  0  0  0  0  0  0  0  0  0  0
    1.0772   -3.1707    0.2220 H   0  0  0  0  0  0  0  0  0  0  0  0
    3.6271   -1.9113    0.1645 C   0  0  0  0  0  0  0  0  0  0  0  0
   -3.7305   -1.5246   -0.1939 C   0  0  0  0  0  0  0  0  0  0  0  0
   -4.5412   -0.7827   -0.2676 H   0  0  0  0  0  0  0  0  0  0  0  0
   -2.4181   -1.0650   -0.0453 C   0  0  0  0  0  0  0  0  0  0  0  0
    4.7267   -1.0435    0.0887 C   0  0  0  0  0  0  0  0  0  0  0  0
    5.7434   -1.4608    0.1578 H   0  0  0  0  0  0  0  0  0  0  0  0
    3.8188   -3.3963    0.3431 C   0  0  0  0  0  0  0  0  0  0  0  0
    4.8934   -3.6550    0.3980 H   0  0  0  0  0  0  0  0  0  0  0  0
    3.3799   -3.9726   -0.4985 H   0  0  0  0  0  0  0  0  0  0  0  0
    3.3390   -3.7646    1.2741 H   0  0  0  0  0  0  0  0  0  0  0  0
   -1.3146   -1.9495   -0.0362 C   0  0  0  0  0  0  0  0  0  0  0  0
    3.2718    0.9167   -0.1614 C   0  0  0  0  0  0  0  0  0  0  0  0
    3.1297    2.0005   -0.2873 H   0  0  0  0  0  0  0  0  0  0  0  0
   -2.5744    1.0043    1.7818 C   0  0  0  0  0  0  0  0  0  0  0  0
   -1.8577    0.4441    2.4119 H   0  0  0  0  0  0  0  0  0  0  0  0
   -3.6121    0.6465    1.9180 H   0  0  0  0  0  0  0  0  0  0  0  0
   -2.4708    2.0932    1.9307 H   0  0  0  0  0  0  0  0  0  0  0  0
    2.3270   -1.3296    0.0670 C   0  0  0  0  0  0  0  0  0  0  0  0
   -2.8925   -3.8010   -0.2314 C   0  0  0  0  0  0  0  0  0  0  0  0
   -3.0758   -4.8833   -0.3072 H   0  0  0  0  0  0  0  0  0  0  0  0
   -3.9746   -2.9015   -0.2745 C   0  0  0  0  0  0  0  0  0  0  0  0
   -5.0026   -3.2765   -0.3866 H   0  0  0  0  0  0  0  0  0  0  0  0
    4.5540    0.3452   -0.0738 C   0  0  0  0  0  0  0  0  0  0  0  0
    5.4437    0.9924   -0.1348 H   0  0  0  0  0  0  0  0  0  0  0  0
  1  2  1  6  0  0  0
  1 22  1  0  0  0  0
  3  7  1  0  0  0  0
  4 19  1  0  0  0  0
  5  4  1  0  0  0  0
  6 26  1  0  0  0  0
  7  8  1  0  0  0  0
  9 15  1  0  0  0  0
 10 12  1  0  0  0  0
 11 10  1  0  0  0  0
 12 19  2  0  0  0  0
 12  1  1  0  0  0  0
 13 14  1  0  0  0  0
 13  9  2  0  0  0  0
 15 16  1  0  0  0  0
 15 18  1  0  0  0  0
 17 15  1  0  0  0  0
 19  3  1  0  0  0  0
 20  6  1  0  0  0  0
 20 31  2  0  0  0  0
 21 20  1  0  0  0  0
 22 24  1  0  0  0  0
 22 25  1  0  0  0  0
 22 23  1  0  0  0  0
 26  7  2  0  0  0  0
 26  9  1  0  0  0  0
 27  4  2  0  0  0  0
 28 27  1  0  0  0  0
 29 27  1  0  0  0  0
 29 10  2  0  0  0  0
 30 29  1  0  0  0  0
 31 13  1  0  0  0  0
 32 31  1  0  0  0  0
M  END
