1,5,19
q = 0.0, confidence = 0.912

 45 47  0  0  1  0  0  0  0  0999 V2000
   -0.5969   -1.8600   -1.5353 S   0  0  0  0  0  1  0  0  0  0  0  0
    1.0068    1.4850    0.1856 N   0  0  0  0  0  0  0  0  0  0  0  0
    0.3848    1.6630    1.3747 N   0  0  0  0  0  0  0  0  0  0  0  0
   -0.9308    1.1960   -1.1826 N   0  0  0  0  0  0  0  0  0  0  0  0
   -2.0442    0.6272   -0.6530 N   0  0  0  0  0  2  0  0  0  0  0  0
    1.2274   -1.2790    0.4872 N   0  0  0  0  0  0  0  0  0  0  0  0
    1.1785   -0.9368    1.4505 H   0  0  0  0  0  0  0  0  0  0  0  0
    3.6219   -1.2512    0.8998 C   0  0  0  0  0  0  0  0  0  0  0  0
    3.4168   -1.0224    1.9578 H   0  0  0  0  0  0  0  0  0  0  0  0
    4.9404   -1.3674    0.4482 C   0  0  0  0  0  0  0  0  0  0  0  0
    5.7667   -1.2402    1.1647 H   0  0  0  0  0  0  0  0  0  0  0  0
    5.2156   -1.6327   -0.9050 C   0  0  0  0  0  0  0  0  0  0  0  0
    6.2533   -1.7209   -1.2582 H   0  0  0  0  0  0  0  0  0  0  0  0
    4.1410   -1.7885   -1.7947 C   0  0  0  0  0  0  0  0  0  0  0  0
    4.3335   -2.0063   -2.8568 H   0  0  0  0  0  0  0  0  0  0  0  0
    2.8140   -1.6764   -1.3551 C   0  0  0  0  0  0  0  0  0  0  0  0
    1.9843   -1.8216   -2.0614 H   0  0  0  0  0  0  0  0  0  0  0  0
    2.5331   -1.4007    0.0054 C   0  0  0  0  0  0  0  0  0  0  0  0
    0.1488   -0.8037   -0.3228 C   0  0  1  0  0  3  0  0  0  0  0  0
    0.8763    2.7667    3.5217 C   0  0  0  0  0  0  0  0  0  0  0  0
    0.7613    3.8671    3.6121 H   0  0  0  0  0  0  0  0  0  0  0  0
    1.6556    2.4602    4.2490 H   0  0  0  0  0  0  0  0  0  0  0  0
   -0.0815    2.2926    3.8071 H   0  0  0  0  0  0  0  0  0  0  0  0
    1.2429    2.3665    2.1265 C   0  0  0  0  0  0  0  0  0  0  0  0
    2.4403    2.6336    1.4001 C   0  0  0  0  0  0  0  0  0  0  0  0
    3.3262    3.1816    1.7388 H   0  0  0  0  0  0  0  0  0  0  0  0
    2.2668    2.0472    0.1475 C   0  0  0  0  0  0  0  0  0  0  0  0
    3.1912    1.9616   -1.0223 C   0  0  0  0  0  0  0  0  0  0  0  0
    3.5202    0.9185   -1.2113 H   0  0  0  0  0  0  0  0  0  0  0  0
    4.0933    2.5688   -0.8241 H   0  0  0  0  0  0  0  0  0  0  0  0
    2.7292    2.3442   -1.9561 H   0  0  0  0  0  0  0  0  0  0  0  0
    0.3622    0.6509   -0.8147 C   0  0  2  0  0  0  0  0  0  0  0  0
    1.0219    0.6602   -1.7056 H   0  0  0  0  0  0  0  0  0  0  0  0
   -0.1758    3.1995   -2.4861 C   0  0  0  0  0  0  0  0  0  0  0  0
   -0.6478    4.0325   -3.0378 H   0  0  0  0  0  0  0  0  0  0  0  0
    0.4392    2.6187   -3.2047 H   0  0  0  0  0  0  0  0  0  0  0  0
    0.5123    3.6320   -1.7300 H   0  0  0  0  0  0  0  0  0  0  0  0
   -1.2236    2.3533   -1.8474 C   0  0  2  0  0  3  0  0  0  0  0  0
   -2.6046    2.5157   -1.7412 C   0  0  0  0  0  0  0  0  0  0  0  0
   -3.2013    3.3316   -2.1617 H   0  0  0  0  0  0  0  0  0  0  0  0
   -3.0834    1.4176   -0.9818 C   0  0  0  0  0  0  0  0  0  0  0  0
   -4.4899    1.1246   -0.5750 C   0  0  0  0  0  0  0  0  0  0  0  0
   -4.9220    0.2853   -1.1563 H   0  0  0  0  0  0  0  0  0  0  0  0
   -5.1248    2.0146   -0.7411 H   0  0  0  0  0  0  0  0  0  0  0  0
   -4.5481    0.8500    0.4965 H   0  0  0  0  0  0  0  0  0  0  0  0
  2  3  1  0  0  0  0
  3 24  2  0  0  0  0
  4 32  1  0  0  0  0
  4  5  1  0  0  0  0
  6  7  1  0  0  0  0
  8  9  1  0  0  0  0
 10  8  1  0  0  0  0
 10 11  1  0  0  0  0
 12 10  2  0  0  0  0
 13 12  1  0  0  0  0
 14 16  2  0  0  0  0
 14 12  1  0  0  0  0
 15 14  1  0  0  0  0
 16 18  1  0  0  0  0
 17 16  1  0  0  0  0
 18  6  1  0  0  0  0
 18  8  2  0  0  0  0
 19  1  1  6  0  0  0
 19  6  1  0  0  0  0
 20 21  1  0  0  0  0
 20 23  1  0  0  0  0
 20 22  1  0  0  0  0
 24 20  1  0  0  0  0
 25 26  1  0  0  0  0
 25 24  1  0  0  0  0
 27  2  1  0  0  0  0
 27 25  2  0  0  0  0
 28 30  1  0  0  0  0
 28 27  1  0  0  0  0
 29 28  1  0  0  0  0
 31 28  1  0  0  0  0
 32 33  1  6  0  0  0
 32 19  1  0  0  0  0
 32  2  1  0  0  0  0
 34 37  1  0  0  0  0
 35 34  1  0  0  0  0
 36 34  1  0  0  0  0
 38 34  1  1  0  0  0
 38 39  1  0  0  0  0
 38  4  1  0  0  0  0
 39 41  2  0  0  0  0
 40 39  1  0  0  0  0
 41  5  1  0  0  0  0
 41 42  1  0  0  0  0
 42 45  1  0  0  0  0
 43 42  1  0  0  0  0
 44 42  1  0  0  0  0
M  END
