1,2,3,4,5
q = -3.0, confidence = 0.29

 81 84  0  0  0  0  0  0  0  0999 V2000
   -1.0739   -1.4961   -1.1454 O   0  5  0  0  0  0  0  0  0  0  0  0
   -0.7577    1.6780   -1.1457 O   0  5  0  0  0  0  0  0  0  0  0  0
    1.8325   -0.1823   -1.1461 O   0  5  0  0  0  0  0  0  0  0  0  0
   -1.6665   -0.0605    1.3193 N   0  0  0  0  0  0  0  0  0  0  0  0
    0.7809    1.4734    1.3198 N   0  0  0  0  0  0  0  0  0  0  0  0
    0.8858   -1.4133    1.3194 N   0  0  0  0  0  0  0  0  0  0  0  0
   -1.6568    1.3045    1.8837 C   0  0  0  0  0  0  0  0  0  0  0  0
   -0.2637    1.7440    2.3381 C   0  0  0  0  0  0  0  0  0  0  0  0
    1.9585    0.7823    1.8835 C   0  0  0  0  0  0  0  0  0  0  0  0
    1.6429   -0.6443    2.3375 C   0  0  0  0  0  0  0  0  0  0  0  0
   -0.3014   -2.0875    1.8831 C   0  0  0  0  0  0  0  0  0  0  0  0
   -1.3790   -1.1009    2.3372 C   0  0  0  0  0  0  0  0  0  0  0  0
   -2.9573   -0.2970    0.5982 C   0  0  0  0  0  0  0  0  0  0  0  0
   -3.1280   -1.6928    0.0622 C   0  0  0  0  0  0  0  0  0  0  0  0
   -2.1535   -2.2060   -0.8393 C   0  0  0  0  0  0  0  0  0  0  0  0
   -2.3295   -3.5132   -1.3833 C   0  0  0  0  0  0  0  0  0  0  0  0
   -3.4607   -4.2553   -1.0135 C   0  0  0  0  0  0  0  0  0  0  0  0
   -4.4358   -3.7654   -0.1175 C   0  0  0  0  0  0  0  0  0  0  0  0
   -4.2419   -2.4779    0.4117 C   0  0  0  0  0  0  0  0  0  0  0  0
   -1.2857   -4.0439   -2.3269 C   0  0  0  0  0  0  0  0  0  0  0  0
   -5.6450   -4.5946    0.2401 C   0  0  0  0  0  0  0  0  0  0  0  0
    1.2210    2.7100    0.5992 C   0  0  0  0  0  0  0  0  0  0  0  0
    0.0974    3.5554    0.0629 C   0  0  0  0  0  0  0  0  0  0  0  0
   -0.8334    2.9679   -0.8394 C   0  0  0  0  0  0  0  0  0  0  0  0
   -1.8773    3.7735   -1.3842 C   0  0  0  0  0  0  0  0  0  0  0  0
   -1.9553    5.1241   -1.0143 C   0  0  0  0  0  0  0  0  0  0  0  0
   -1.0445    5.7238   -0.1174 C   0  0  0  0  0  0  0  0  0  0  0  0
   -0.0265    4.9125    0.4124 C   0  0  0  0  0  0  0  0  0  0  0  0
   -2.8577    3.1346   -2.3288 C   0  0  0  0  0  0  0  0  0  0  0  0
   -1.1591    7.1854    0.2406 C   0  0  0  0  0  0  0  0  0  0  0  0
    1.7363   -2.4125    0.5981 C   0  0  0  0  0  0  0  0  0  0  0  0
    3.0304   -1.8621    0.0622 C   0  0  0  0  0  0  0  0  0  0  0  0
    2.9873   -0.7619   -0.8397 C   0  0  0  0  0  0  0  0  0  0  0  0
    4.2072   -0.2605   -1.3839 C   0  0  0  0  0  0  0  0  0  0  0  0
    5.4156   -0.8687   -1.0140 C   0  0  0  0  0  0  0  0  0  0  0  0
    5.4793   -1.9577   -0.1176 C   0  0  0  0  0  0  0  0  0  0  0  0
    4.2675   -2.4337    0.4118 C   0  0  0  0  0  0  0  0  0  0  0  0
    4.1445    0.9085   -2.3278 C   0  0  0  0  0  0  0  0  0  0  0  0
    6.8023   -2.5893    0.2406 C   0  0  0  0  0  0  0  0  0  0  0  0
   -2.0173    1.9911    1.0947 H   0  0  0  0  0  0  0  0  0  0  0  0
   -2.3694    1.3915    2.7406 H   0  0  0  0  0  0  0  0  0  0  0  0
    0.0127    1.2264    3.2784 H   0  0  0  0  0  0  0  0  0  0  0  0
   -0.3010    2.8275    2.5795 H   0  0  0  0  0  0  0  0  0  0  0  0
    2.7330    0.7516    1.0942 H   0  0  0  0  0  0  0  0  0  0  0  0
    2.3904    1.3556    2.7405 H   0  0  0  0  0  0  0  0  0  0  0  0
    1.0571   -0.6251    3.2782 H   0  0  0  0  0  0  0  0  0  0  0  0
    2.6001   -1.1537    2.5782 H   0  0  0  0  0  0  0  0  0  0  0  0
   -0.7152   -2.7431    1.0938 H   0  0  0  0  0  0  0  0  0  0  0  0
   -0.0209   -2.7482    2.7401 H   0  0  0  0  0  0  0  0  0  0  0  0
   -1.0693   -0.6033    3.2780 H   0  0  0  0  0  0  0  0  0  0  0  0
   -2.2988   -1.6752    2.5779 H   0  0  0  0  0  0  0  0  0  0  0  0
   -2.9693    0.4404   -0.2346 H   0  0  0  0  0  0  0  0  0  0  0  0
   -3.8090   -0.0542    1.2764 H   0  0  0  0  0  0  0  0  0  0  0  0
   -3.5871   -5.2646   -1.4411 H   0  0  0  0  0  0  0  0  0  0  0  0
   -4.9854   -2.0634    1.1139 H   0  0  0  0  0  0  0  0  0  0  0  0
   -1.5762   -5.0266   -2.7457 H   0  0  0  0  0  0  0  0  0  0  0  0
   -0.3035   -4.1613   -1.8195 H   0  0  0  0  0  0  0  0  0  0  0  0
   -1.1071   -3.3356   -3.1619 H   0  0  0  0  0  0  0  0  0  0  0  0
   -5.3605   -5.6158    0.5699 H   0  0  0  0  0  0  0  0  0  0  0  0
   -6.3270   -4.7195   -0.6285 H   0  0  0  0  0  0  0  0  0  0  0  0
   -6.2320   -4.1282    1.0557 H   0  0  0  0  0  0  0  0  0  0  0  0
    1.8565    3.3263    1.2778 H   0  0  0  0  0  0  0  0  0  0  0  0
    1.8660    2.3523   -0.2335 H   0  0  0  0  0  0  0  0  0  0  0  0
   -2.7661    5.7380   -1.4424 H   0  0  0  0  0  0  0  0  0  0  0  0
    0.7036    5.3494    1.1153 H   0  0  0  0  0  0  0  0  0  0  0  0
   -3.5640    3.8769   -2.7475 H   0  0  0  0  0  0  0  0  0  0  0  0
   -3.4498    2.3417   -1.8222 H   0  0  0  0  0  0  0  0  0  0  0  0
   -2.3327    2.6268   -3.1639 H   0  0  0  0  0  0  0  0  0  0  0  0
   -0.4616    7.4609    1.0560 H   0  0  0  0  0  0  0  0  0  0  0  0
   -2.1857    7.4487    0.5710 H   0  0  0  0  0  0  0  0  0  0  0  0
   -0.9272    7.8389   -0.6279 H   0  0  0  0  0  0  0  0  0  0  0  0
    1.9521   -3.2715    1.2761 H   0  0  0  0  0  0  0  0  0  0  0  0
    1.1038   -2.7915   -0.2348 H   0  0  0  0  0  0  0  0  0  0  0  0
    6.3528   -0.4733   -1.4418 H   0  0  0  0  0  0  0  0  0  0  0  0
    4.2806   -3.2847    1.1142 H   0  0  0  0  0  0  0  0  0  0  0  0
    5.1406    1.1488   -2.7465 H   0  0  0  0  0  0  0  0  0  0  0  0
    3.7543    1.8176   -1.8209 H   0  0  0  0  0  0  0  0  0  0  0  0
    3.4421    0.7084   -3.1630 H   0  0  0  0  0  0  0  0  0  0  0  0
    6.6909   -3.3359    1.0514 H   0  0  0  0  0  0  0  0  0  0  0  0
    7.5415   -1.8326    0.5776 H   0  0  0  0  0  0  0  0  0  0  0  0
    7.2557   -3.1111   -0.6297 H   0  0  0  0  0  0  0  0  0  0  0  0
  1 15  1  0  0  0  0
  2 24  1  0  0  0  0
  3 33  1  0  0  0  0
  4  7  1  0  0  0  0
  4 12  1  0  0  0  0
  5  9  1  0  0  0  0
  5  8  1  0  0  0  0
  6 11  1  0  0  0  0
  6 10  1  0  0  0  0
  7  8  1  0  0  0  0
  7 41  1  0  0  0  0
  8 43  1  0  0  0  0
  8 42  1  0  0  0  0
  9 10  1  0  0  0  0
  9 45  1  0  0  0  0
 10 47  1  0  0  0  0
 10 46  1  0  0  0  0
 11 12  1  0  0  0  0
 11 49  1  0  0  0  0
 12 51  1  0  0  0  0
 12 50  1  0  0  0  0
 13 53  1  0  0  0  0
 13  4  1  0  0  0  0
 14 19  1  0  0  0  0
 14 13  1  0  0  0  0
 15 14  2  0  0  0  0
 16 17  2  0  0  0  0
 16 15  1  0  0  0  0
 17 18  1  0  0  0  0
 18 21  1  0  0  0  0
 18 19  2  0  0  0  0
 19 55  1  0  0  0  0
 20 57  1  0  0  0  0
 20 16  1  0  0  0  0
 21 59  1  0  0  0  0
 21 61  1  0  0  0  0
 22 62  1  0  0  0  0
 22  5  1  0  0  0  0
 23 28  1  0  0  0  0
 23 22  1  0  0  0  0
 24 23  2  0  0  0  0
 25 26  2  0  0  0  0
 25 24  1  0  0  0  0
 26 27  1  0  0  0  0
 27 30  1  0  0  0  0
 27 28  2  0  0  0  0
 28 65  1  0  0  0  0
 29 67  1  0  0  0  0
 29 25  1  0  0  0  0
 30 70  1  0  0  0  0
 30 69  1  0  0  0  0
 31 72  1  0  0  0  0
 31  6  1  0  0  0  0
 32 37  1  0  0  0  0
 32 31  1  0  0  0  0
 33 32  2  0  0  0  0
 34 35  2  0  0  0  0
 34 33  1  0  0  0  0
 35 36  1  0  0  0  0
 36 39  1  0  0  0  0
 36 37  2  0  0  0  0
 37 75  1  0  0  0  0
 38 77  1  0  0  0  0
 38 34  1  0  0  0  0
 39 80  1  0  0  0  0
 39 79  1  0  0  0  0
 40  7  1  0  0  0  0
 44  9  1  0  0  0  0
 48 11  1  0  0  0  0
 52 13  1  0  0  0  0
 54 17  1  0  0  0  0
 56 20  1  0  0  0  0
 58 20  1  0  0  0  0
 60 21  1  0  0  0  0
 63 22  1  0  0  0  0
 64 26  1  0  0  0  0
 66 29  1  0  0  0  0
 68 29  1  0  0  0  0
 71 30  1  0  0  0  0
 73 31  1  0  0  0  0
 74 35  1  0  0  0  0
 76 38  1  0  0  0  0
 78 38  1  0  0  0  0
 81 39  1  0  0  0  0
M  CHG  3   1  -1   2  -1   3  -1
M  END
