18,19,20,21,22,23
q = -1.0, confidence = 0.334

 57 60  0  0  1  0  0  0  0  0999 V2000
    0.4001    1.4022    3.4384 C   0  0  0  0  0  0  0  0  0  0  0  0
    1.4292    0.3628    2.9678 C   0  0  2  0  0  0  0  0  0  0  0  0
    2.7650    0.3487    0.9900 C   0  0  0  0  0  3  0  0  0  0  0  0
    3.1126   -0.0429   -0.3408 C   0  0  0  0  0  0  0  0  0  0  0  0
    4.4265    0.1974   -0.8272 C   0  0  0  0  0  0  0  0  0  0  0  0
    4.8505   -0.3117   -2.0484 C   0  0  0  0  0  0  0  0  0  0  0  0
    3.9567   -1.1160   -2.8004 C   0  0  0  0  0  0  0  0  0  0  0  0
    2.6717   -1.3895   -2.3469 C   0  0  0  0  0  0  0  0  0  0  0  0
    2.1890   -0.8466   -1.1139 C   0  0  0  0  0  0  0  0  0  0  0  0
    0.6774    2.4075    3.0632 H   0  0  0  0  0  0  0  0  0  0  0  0
    0.4211    1.4378    4.5478 H   0  0  0  0  0  0  0  0  0  0  0  0
    2.4195    0.6148    3.4099 H   0  0  0  0  0  0  0  0  0  0  0  0
    3.6030    0.6296    1.6631 H   0  0  0  0  0  0  0  0  0  0  0  0
    5.1110    0.8026   -0.2103 H   0  0  0  0  0  0  0  0  0  0  0  0
    5.8640   -0.1058   -2.4214 H   0  0  0  0  0  0  0  0  0  0  0  0
    4.2841   -1.5320   -3.7667 H   0  0  0  0  0  0  0  0  0  0  0  0
    1.9733   -2.0101   -2.9264 H   0  0  0  0  0  0  0  0  0  0  0  0
    1.5657    0.3283    1.5145 N   0  0  0  0  0  2  0  0  0  0  0  0
    0.9886   -1.1395   -0.7243 O   0  5  0  0  0  0  0  0  0  0  0  0
   -0.4947   -1.5205    1.5149 N   0  0  0  0  0  2  0  0  0  0  0  0
   -1.0659    1.1881    1.5179 N   0  0  0  0  0  2  0  0  0  0  0  0
   -1.4823   -0.2857   -0.7213 O   0  5  0  0  0  0  0  0  0  0  0  0
    0.4924    1.4277   -0.7213 O   0  5  0  0  0  0  0  0  0  0  0  0
    1.0224   -1.0491    3.4358 C   0  0  0  0  0  0  0  0  0  0  0  0
   -1.0264    1.0495    2.9709 C   0  0  1  0  0  0  0  0  0  0  0  0
   -0.3933   -1.4203    2.9681 C   0  0  1  0  0  0  0  0  0  0  0  0
   -1.0779   -2.5690    0.9912 C   0  0  0  0  0  3  0  0  0  0  0  0
   -1.6839    2.2174    0.9960 C   0  0  0  0  0  3  0  0  0  0  0  0
   -1.8302   -1.4715   -1.1103 C   0  0  0  0  0  0  0  0  0  0  0  0
   -0.3621    2.3213   -1.1085 C   0  0  0  0  0  0  0  0  0  0  0  0
    1.7536   -1.7918    3.0589 H   0  0  0  0  0  0  0  0  0  0  0  0
    1.0450   -1.0854    4.5452 H   0  0  0  0  0  0  0  0  0  0  0  0
   -1.4116   -0.3624    3.4388 C   0  0  0  0  0  0  0  0  0  0  0  0
   -1.7394    1.7803    3.4150 H   0  0  0  0  0  0  0  0  0  0  0  0
   -0.6693   -2.4042    3.4102 H   0  0  0  0  0  0  0  0  0  0  0  0
   -1.5941   -2.6736   -0.3384 C   0  0  0  0  0  0  0  0  0  0  0  0
   -1.2520   -3.4357    1.6642 H   0  0  0  0  0  0  0  0  0  0  0  0
   -1.5196    2.7172   -0.3338 C   0  0  0  0  0  0  0  0  0  0  0  0
   -2.3459    2.8011    1.6708 H   0  0  0  0  0  0  0  0  0  0  0  0
   -2.5450   -1.6175   -2.3415 C   0  0  0  0  0  0  0  0  0  0  0  0
   -0.1343    3.0136   -2.3401 C   0  0  0  0  0  0  0  0  0  0  0  0
   -2.4212   -0.6241    3.0640 H   0  0  0  0  0  0  0  0  0  0  0  0
   -1.4519   -0.3644    4.5483 H   0  0  0  0  0  0  0  0  0  0  0  0
   -2.0445   -3.9314   -0.8242 C   0  0  0  0  0  0  0  0  0  0  0  0
   -2.3853    3.7357   -0.8175 C   0  0  0  0  0  0  0  0  0  0  0  0
   -2.9520   -2.8667   -2.7945 C   0  0  0  0  0  0  0  0  0  0  0  0
   -2.7345   -0.7020   -2.9201 H   0  0  0  0  0  0  0  0  0  0  0  0
   -1.0142    3.9903   -2.7910 C   0  0  0  0  0  0  0  0  0  0  0  0
    0.7522    2.7206   -2.9208 H   0  0  0  0  0  0  0  0  0  0  0  0
   -2.7006   -4.0434   -2.0437 C   0  0  0  0  0  0  0  0  0  0  0  0
   -1.8612   -4.8270   -0.2081 H   0  0  0  0  0  0  0  0  0  0  0  0
   -2.1574    4.3602   -2.0375 C   0  0  0  0  0  0  0  0  0  0  0  0
   -3.2514    4.0242   -0.1994 H   0  0  0  0  0  0  0  0  0  0  0  0
   -3.4786   -2.9418   -3.7594 H   0  0  0  0  0  0  0  0  0  0  0  0
   -0.8184    4.4841   -3.7562 H   0  0  0  0  0  0  0  0  0  0  0  0
   -3.0302   -5.0238   -2.4162 H   0  0  0  0  0  0  0  0  0  0  0  0
   -2.8429    5.1355   -2.4083 H   0  0  0  0  0  0  0  0  0  0  0  0
  1 11  1  0  0  0  0
  2 12  1  1  0  0  0
  2 24  1  0  0  0  0
  2  1  1  0  0  0  0
  3 18  1  0  0  0  0
  3 13  1  0  0  0  0
  4  3  1  0  0  0  0
  5  4  1  0  0  0  0
  5 14  1  0  0  0  0
  6  5  2  0  0  0  0
  7  8  2  0  0  0  0
  7  6  1  0  0  0  0
  8  9  1  0  0  0  0
  9 19  1  0  0  0  0
  9  4  2  0  0  0  0
 10  1  1  0  0  0  0
 15  6  1  0  0  0  0
 16  7  1  0  0  0  0
 17  8  1  0  0  0  0
 18  2  1  0  0  0  0
 20 26  1  0  0  0  0
 21 25  1  0  0  0  0
 24 32  1  0  0  0  0
 25 34  1  1  0  0  0
 25  1  1  0  0  0  0
 25 33  1  0  0  0  0
 26 35  1  1  0  0  0
 26 24  1  0  0  0  0
 26 33  1  0  0  0  0
 27 20  1  0  0  0  0
 27 37  1  0  0  0  0
 28 21  1  0  0  0  0
 28 39  1  0  0  0  0
 29 22  1  0  0  0  0
 29 36  1  0  0  0  0
 30 23  1  0  0  0  0
 30 38  1  0  0  0  0
 31 24  1  0  0  0  0
 33 43  1  0  0  0  0
 36 27  1  0  0  0  0
 38 28  1  0  0  0  0
 40 29  2  0  0  0  0
 41 30  2  0  0  0  0
 42 33  1  0  0  0  0
 44 36  2  0  0  0  0
 44 51  1  0  0  0  0
 45 38  2  0  0  0  0
 45 53  1  0  0  0  0
 46 40  1  0  0  0  0
 46 50  2  0  0  0  0
 47 40  1  0  0  0  0
 48 41  1  0  0  0  0
 48 52  2  0  0  0  0
 49 41  1  0  0  0  0
 50 44  1  0  0  0  0
 52 45  1  0  0  0  0
 54 46  1  0  0  0  0
 55 48  1  0  0  0  0
 56 50  1  0  0  0  0
 57 52  1  0  0  0  0
M  CHG  3  19  -1  22  -1  23  -1
M  END
