28,35,48,55,68,75
 OpenBabel05122313063D

 81 81  0  0  1  0  0  0  0  0999 V2000
    1.5741    0.6629    2.4450 N   0  0  0  0  0  0  0  0  0  0  0  0
    2.0251   -0.6191    3.0108 C   0  0  0  0  0  0  0  0  0  0  0  0
    2.7018   -0.4621    3.8890 H   0  0  0  0  0  0  0  0  0  0  0  0
    2.6256   -1.1198    2.2301 H   0  0  0  0  0  0  0  0  0  0  0  0
    0.8673   -1.5175    3.4534 C   0  0  0  0  0  0  0  0  0  0  0  0
    1.2859   -2.5033    3.7548 H   0  0  0  0  0  0  0  0  0  0  0  0
    0.4190   -1.1076    4.3803 H   0  0  0  0  0  0  0  0  0  0  0  0
   -0.2055   -1.6956    2.4448 N   0  0  0  0  0  0  0  0  0  0  0  0
   -1.5387   -1.4471    3.0170 C   0  0  0  0  0  0  0  0  0  0  0  0
   -1.7364   -2.1118    3.8960 H   0  0  0  0  0  0  0  0  0  0  0  0
   -2.2759   -1.7173    2.2396 H   0  0  0  0  0  0  0  0  0  0  0  0
   -1.7365    0.0043    3.4607 C   0  0  0  0  0  0  0  0  0  0  0  0
   -2.7986    0.1348    3.7651 H   0  0  0  0  0  0  0  0  0  0  0  0
   -1.1548    0.1876    4.3858 H   0  0  0  0  0  0  0  0  0  0  0  0
   -1.3570    1.0220    2.4508 N   0  0  0  0  0  0  0  0  0  0  0  0
   -0.4727    2.0523    3.0193 C   0  0  0  0  0  0  0  0  0  0  0  0
   -0.9464    2.5565    3.8998 H   0  0  0  0  0  0  0  0  0  0  0  0
   -0.3413    2.8254    2.2409 H   0  0  0  0  0  0  0  0  0  0  0  0
    0.8853    1.4991    3.4579 C   0  0  0  0  0  0  0  0  0  0  0  0
    1.5297    2.3541    3.7608 H   0  0  0  0  0  0  0  0  0  0  0  0
    0.7566    0.9032    4.3832 H   0  0  0  0  0  0  0  0  0  0  0  0
    2.7134    1.3740    1.8297 C   0  0  0  0  0  0  0  0  0  0  0  0
    3.2138    0.6950    1.1090 H   0  0  0  0  0  0  0  0  0  0  0  0
    3.4763    1.6429    2.6021 H   0  0  0  0  0  0  0  0  0  0  0  0
    2.2729    2.6417    1.1012 C   0  0  0  0  0  0  0  0  0  0  0  0
    2.1260    3.4860    1.8150 H   0  0  0  0  0  0  0  0  0  0  0  0
    3.0979    2.9546    0.4247 H   0  0  0  0  0  0  0  0  0  0  0  0
    1.0370    2.4215    0.3629 N   0  0  0  0  0  2  0  0  0  0  0  0
    0.6217    3.3134   -0.4739 C   0  0  2  0  0  3  0  0  0  0  0  0
    1.3129    4.6087   -0.7835 C   0  0  0  0  0  0  0  0  0  0  0  0
    1.4957    5.1985    0.1395 H   0  0  0  0  0  0  0  0  0  0  0  0
    0.7201    5.2163   -1.4906 H   0  0  0  0  0  0  0  0  0  0  0  0
    2.3067    4.4050   -1.2386 H   0  0  0  0  0  0  0  0  0  0  0  0
   -0.9913    2.9192   -1.2718 P   0  0  1  0  0  0  0  0  0  0  0  0
   -1.1276    1.3750   -1.1004 O   0  0  0  0  0  1  0  0  0  0  0  0
   -2.0542    3.8435   -0.7278 O   0  0  0  0  0  0  0  0  0  0  0  0
   -0.6979    3.2508   -2.8594 O   0  0  0  0  0  0  0  0  0  0  0  0
    0.1333    2.3515   -3.5998 C   0  0  0  0  0  0  0  0  0  0  0  0
    0.9819    1.9607   -2.9962 H   0  0  0  0  0  0  0  0  0  0  0  0
    0.5271    2.9087   -4.4723 H   0  0  0  0  0  0  0  0  0  0  0  0
   -0.4511    1.4792   -3.9611 H   0  0  0  0  0  0  0  0  0  0  0  0
   -0.1608   -3.0376    1.8292 C   0  0  0  0  0  0  0  0  0  0  0  0
   -1.0016   -3.1320    1.1117 H   0  0  0  0  0  0  0  0  0  0  0  0
   -0.3061   -3.8330    2.6020 H   0  0  0  0  0  0  0  0  0  0  0  0
    1.1547   -3.2899    1.0958 C   0  0  0  0  0  0  0  0  0  0  0  0
    1.9620   -3.5848    1.8067 H   0  0  0  0  0  0  0  0  0  0  0  0
    1.0107   -4.1609    0.4199 H   0  0  0  0  0  0  0  0  0  0  0  0
    1.5792   -2.1095    0.3559 N   0  0  0  0  0  2  0  0  0  0  0  0
    2.5566   -2.1951   -0.4842 C   0  0  2  0  0  3  0  0  0  0  0  0
    3.3321   -3.4409   -0.7969 C   0  0  0  0  0  0  0  0  0  0  0  0
    3.7545   -3.8947    0.1245 H   0  0  0  0  0  0  0  0  0  0  0  0
    4.1525   -3.2308   -1.5064 H   0  0  0  0  0  0  0  0  0  0  0  0
    2.6575   -4.1997   -1.2504 H   0  0  0  0  0  0  0  0  0  0  0  0
    3.0195   -0.6003   -1.2817 P   0  0  1  0  0  0  0  0  0  0  0  0
    1.7505    0.2893   -1.1069 O   0  0  0  0  0  1  0  0  0  0  0  0
    4.3526   -0.1420   -0.7404 O   0  0  0  0  0  0  0  0  0  0  0  0
    3.1564   -1.0188   -2.8699 O   0  0  0  0  0  0  0  0  0  0  0  0
    1.9602   -1.2903   -3.6069 C   0  0  0  0  0  0  0  0  0  0  0  0
    1.2008   -1.8327   -3.0016 H   0  0  0  0  0  0  0  0  0  0  0  0
    2.2444   -1.9079   -4.4814 H   0  0  0  0  0  0  0  0  0  0  0  0
    1.4935   -0.3487   -3.9651 H   0  0  0  0  0  0  0  0  0  0  0  0
   -2.5432    1.6551    1.8390 C   0  0  0  0  0  0  0  0  0  0  0  0
   -2.2059    2.4302    1.1205 H   0  0  0  0  0  0  0  0  0  0  0  0
   -3.1563    2.1791    2.6138 H   0  0  0  0  0  0  0  0  0  0  0  0
   -3.4225    0.6429    1.1081 C   0  0  0  0  0  0  0  0  0  0  0  0
   -4.0793    0.0910    1.8209 H   0  0  0  0  0  0  0  0  0  0  0  0
   -4.1069    1.2037    0.4349 H   0  0  0  0  0  0  0  0  0  0  0  0
   -2.6154   -0.3145    0.3646 N   0  0  0  0  0  2  0  0  0  0  0  0
   -3.1813   -1.1167   -0.4747 C   0  0  2  0  0  3  0  0  0  0  0  0
   -4.6490   -1.1645   -0.7826 C   0  0  0  0  0  0  0  0  0  0  0  0
   -5.2503   -1.3047    0.1405 H   0  0  0  0  0  0  0  0  0  0  0  0
   -4.8797   -1.9787   -1.4928 H   0  0  0  0  0  0  0  0  0  0  0  0
   -4.9700   -0.2000   -1.2334 H   0  0  0  0  0  0  0  0  0  0  0  0
   -2.0341   -2.3132   -1.2786 P   0  0  1  0  0  0  0  0  0  0  0  0
   -0.6288   -1.6588   -1.1077 O   0  0  0  0  0  1  0  0  0  0  0  0
   -2.3015   -3.6981   -0.7393 O   0  0  0  0  0  0  0  0  0  0  0  0
   -2.4704   -2.2185   -2.8651 O   0  0  0  0  0  0  0  0  0  0  0  0
   -2.1091   -1.0447   -3.5996 C   0  0  0  0  0  0  0  0  0  0  0  0
   -2.2015   -0.1171   -2.9927 H   0  0  0  0  0  0  0  0  0  0  0  0
   -2.7854   -0.9819   -4.4746 H   0  0  0  0  0  0  0  0  0  0  0  0
   -1.0598   -1.1084   -3.9568 H   0  0  0  0  0  0  0  0  0  0  0  0
  1  2  1  0  0  0  0
  1 19  1  0  0  0  0
  2  5  1  0  0  0  0
  2  3  1  0  0  0  0
  4  2  1  0  0  0  0
  5  6  1  0  0  0  0
  5  7  1  0  0  0  0
  8  9  1  0  0  0  0
  8  5  1  0  0  0  0
  9 12  1  0  0  0  0
  9 10  1  0  0  0  0
 11  9  1  0  0  0  0
 12 13  1  0  0  0  0
 12 14  1  0  0  0  0
 15 16  1  0  0  0  0
 15 12  1  0  0  0  0
 16 19  1  0  0  0  0
 16 17  1  0  0  0  0
 18 16  1  0  0  0  0
 19 20  1  0  0  0  0
 19 21  1  0  0  0  0
 22  1  1  0  0  0  0
 22 24  1  0  0  0  0
 23 22  1  0  0  0  0
 25 26  1  0  0  0  0
 25 22  1  0  0  0  0
 27 25  1  0  0  0  0
 28 25  1  0  0  0  0
 29 28  1  1  0  0  0
 30 29  1  0  0  0  0
 30 31  1  0  0  0  0
 32 30  1  0  0  0  0
 33 30  1  0  0  0  0
 34 35  1  1  0  0  0
 34 36  2  0  0  0  0
 34 29  1  0  0  0  0
 37 34  1  0  0  0  0
 38 39  1  0  0  0  0
 38 37  1  0  0  0  0
 40 38  1  0  0  0  0
 41 38  1  0  0  0  0
 42  8  1  0  0  0  0
 42 44  1  0  0  0  0
 43 42  1  0  0  0  0
 45 46  1  0  0  0  0
 45 42  1  0  0  0  0
 47 45  1  0  0  0  0
 48 45  1  0  0  0  0
 49 48  1  1  0  0  0
 50 49  1  0  0  0  0
 50 51  1  0  0  0  0
 52 50  1  0  0  0  0
 53 50  1  0  0  0  0
 54 55  1  1  0  0  0
 54 56  2  0  0  0  0
 54 49  1  0  0  0  0
 57 54  1  0  0  0  0
 58 59  1  0  0  0  0
 58 57  1  0  0  0  0
 60 58  1  0  0  0  0
 61 58  1  0  0  0  0
 62 15  1  0  0  0  0
 62 64  1  0  0  0  0
 63 62  1  0  0  0  0
 65 66  1  0  0  0  0
 65 62  1  0  0  0  0
 67 65  1  0  0  0  0
 68 65  1  0  0  0  0
 69 68  1  1  0  0  0
 70 69  1  0  0  0  0
 70 71  1  0  0  0  0
 72 70  1  0  0  0  0
 73 70  1  0  0  0  0
 74 75  1  1  0  0  0
 74 76  2  0  0  0  0
 74 69  1  0  0  0  0
 77 74  1  0  0  0  0
 78 79  1  0  0  0  0
 78 77  1  0  0  0  0
 80 78  1  0  0  0  0
 81 78  1  0  0  0  0
M  END
