2,3,4,5,7,9
 OpenBabel05122313063D

 73 75  0  0  0  0  0  0  0  0999 V2000
   -0.0008   -0.0187    4.2023 N   0  0  0  0  0  0  0  0  0  0  0  0
    0.0479   -1.6723    1.6256 N   0  0  0  0  0  2  0  0  0  0  0  0
    1.4202    0.8653    1.6375 N   0  0  0  0  0  2  0  0  0  0  0  0
   -1.4648    0.7845    1.6352 N   0  0  0  0  0  2  0  0  0  0  0  0
    1.1719   -0.9311   -0.5703 O   0  5  0  0  0  0  0  0  0  0  0  0
    5.2234   -2.1795   -2.7485 O   0  0  0  0  0  0  0  0  0  0  0  0
    0.2265    1.4823   -0.5594 O   0  5  0  0  0  0  0  0  0  0  0  0
   -0.7131    5.6244   -2.7219 O   0  0  0  0  0  0  0  0  0  0  0  0
   -1.3906   -0.5435   -0.5701 O   0  5  0  0  0  0  0  0  0  0  0  0
   -4.5163   -3.4080   -2.7477 O   0  0  0  0  0  0  0  0  0  0  0  0
   -1.5919   -2.8303    0.1934 C   0  0  0  0  0  0  0  0  0  0  0  0
   -1.9360   -1.7098   -0.6550 C   0  0  0  0  0  0  0  0  0  0  0  0
   -2.9410   -1.9091   -1.6550 C   0  0  0  0  0  0  0  0  0  0  0  0
   -3.1795   -1.0408   -2.2811 H   0  0  0  0  0  0  0  0  0  0  0  0
   -3.5599   -3.1486   -1.8177 C   0  0  0  0  0  0  0  0  0  0  0  0
   -3.2094   -4.2575   -0.9893 C   0  0  0  0  0  0  0  0  0  0  0  0
   -3.7160   -5.2182   -1.1511 H   0  0  0  0  0  0  0  0  0  0  0  0
   -2.2455   -4.0817   -0.0162 C   0  0  0  0  0  0  0  0  0  0  0  0
   -1.9652   -4.9290    0.6307 H   0  0  0  0  0  0  0  0  0  0  0  0
   -4.9150   -2.3591   -3.6113 C   0  0  0  0  0  0  0  0  0  0  0  0
   -5.3447   -1.5015   -3.0473 H   0  0  0  0  0  0  0  0  0  0  0  0
   -5.6900   -2.7799   -4.2785 H   0  0  0  0  0  0  0  0  0  0  0  0
   -4.0660   -1.9864   -4.2264 H   0  0  0  0  0  0  0  0  0  0  0  0
   -0.6192   -2.7317    1.2278 C   0  0  0  0  0  3  0  0  0  0  0  0
   -0.4149   -3.6770    1.7737 H   0  0  0  0  0  0  0  0  0  0  0  0
    0.9827   -1.8564    2.7265 C   0  0  0  0  0  0  0  0  0  0  0  0
    1.9227   -1.3223    2.4925 H   0  0  0  0  0  0  0  0  0  0  0  0
    1.2432   -2.9344    2.8222 H   0  0  0  0  0  0  0  0  0  0  0  0
    0.4401   -1.3848    4.0945 C   0  0  0  0  0  0  0  0  0  0  0  0
   -0.4131   -2.0388    4.3787 H   0  0  0  0  0  0  0  0  0  0  0  0
    1.2491   -1.5847    4.8394 H   0  0  0  0  0  0  0  0  0  0  0  0
   -1.4046    0.2833    4.1008 C   0  0  0  0  0  0  0  0  0  0  0  0
   -1.5436    1.3470    4.3937 H   0  0  0  0  0  0  0  0  0  0  0  0
   -1.9801   -0.3231    4.8427 H   0  0  0  0  0  0  0  0  0  0  0  0
   -2.0885    0.0598    2.7331 C   0  0  0  0  0  0  0  0  0  0  0  0
   -2.0983   -1.0196    2.4912 H   0  0  0  0  0  0  0  0  0  0  0  0
   -3.1517    0.3735    2.8345 H   0  0  0  0  0  0  0  0  0  0  0  0
   -2.0514    1.8934    1.2451 C   0  0  0  0  0  3  0  0  0  0  0  0
   -2.9710    2.1848    1.7954 H   0  0  0  0  0  0  0  0  0  0  0  0
   -1.6558    2.7907    0.2135 C   0  0  0  0  0  0  0  0  0  0  0  0
   -0.5150    2.5352   -0.6391 C   0  0  0  0  0  0  0  0  0  0  0  0
   -0.1917    3.5094   -1.6370 C   0  0  0  0  0  0  0  0  0  0  0  0
    0.6781    3.2866   -2.2668 H   0  0  0  0  0  0  0  0  0  0  0  0
   -0.9601    4.6632   -1.7936 C   0  0  0  0  0  0  0  0  0  0  0  0
   -2.0936    4.9078   -0.9604 C   0  0  0  0  0  0  0  0  0  0  0  0
   -2.6758    5.8255   -1.1173 H   0  0  0  0  0  0  0  0  0  0  0  0
   -2.4171    3.9808    0.0107 C   0  0  0  0  0  0  0  0  0  0  0  0
   -3.2895    4.1567    0.6610 H   0  0  0  0  0  0  0  0  0  0  0  0
    0.3912    5.4504   -3.5909 C   0  0  0  0  0  0  0  0  0  0  0  0
    1.3515    5.3953   -3.0314 H   0  0  0  0  0  0  0  0  0  0  0  0
    0.4087    6.3335   -4.2563 H   0  0  0  0  0  0  0  0  0  0  0  0
    0.2893    4.5298   -4.2076 H   0  0  0  0  0  0  0  0  0  0  0  0
    0.9626    1.0465    4.1056 C   0  0  0  0  0  0  0  0  0  0  0  0
    1.9539    0.6326    4.3926 H   0  0  0  0  0  0  0  0  0  0  0  0
    0.7275    1.8429    4.8538 H   0  0  0  0  0  0  0  0  0  0  0  0
    1.1073    1.7602    2.7425 C   0  0  0  0  0  0  0  0  0  0  0  0
    0.1765    2.3097    2.5069 H   0  0  0  0  0  0  0  0  0  0  0  0
    1.9107    2.5235    2.8472 H   0  0  0  0  0  0  0  0  0  0  0  0
    2.6727    0.8213    1.2438 C   0  0  0  0  0  3  0  0  0  0  0  0
    3.3866    1.4678    1.7967 H   0  0  0  0  0  0  0  0  0  0  0  0
    3.2489    0.0367    0.2054 C   0  0  0  0  0  0  0  0  0  0  0  0
    2.4546   -0.8168   -0.6515 C   0  0  0  0  0  0  0  0  0  0  0  0
    3.1338   -1.5781   -1.6558 C   0  0  0  0  0  0  0  0  0  0  0  0
    2.5040   -2.2151   -2.2886 H   0  0  0  0  0  0  0  0  0  0  0  0
    4.5170   -1.4902   -1.8144 C   0  0  0  0  0  0  0  0  0  0  0  0
    5.2982   -0.6373   -0.9770 C   0  0  0  0  0  0  0  0  0  0  0  0
    6.3838   -0.5922   -1.1357 H   0  0  0  0  0  0  0  0  0  0  0  0
    4.6600    0.1006    0.0002 C   0  0  0  0  0  0  0  0  0  0  0  0
    5.2505    0.7632    0.6538 H   0  0  0  0  0  0  0  0  0  0  0  0
    4.5181   -3.0422   -3.6220 C   0  0  0  0  0  0  0  0  0  0  0  0
    3.9908   -3.8498   -3.0670 H   0  0  0  0  0  0  0  0  0  0  0  0
    5.2724   -3.4948   -4.2921 H   0  0  0  0  0  0  0  0  0  0  0  0
    3.7709   -2.4889   -4.2332 H   0  0  0  0  0  0  0  0  0  0  0  0
  2 26  1  0  0  0  0
  3 56  1  0  0  0  0
  4 35  1  0  0  0  0
  6 65  1  0  0  0  0
  8 44  1  0  0  0  0
 10 15  1  0  0  0  0
 11 24  1  0  0  0  0
 12  9  1  0  0  0  0
 12 11  2  0  0  0  0
 13 12  1  0  0  0  0
 14 13  1  0  0  0  0
 15 13  2  0  0  0  0
 15 16  1  0  0  0  0
 16 18  2  0  0  0  0
 17 16  1  0  0  0  0
 18 11  1  0  0  0  0
 18 19  1  0  0  0  0
 20 21  1  0  0  0  0
 20 10  1  0  0  0  0
 22 20  1  0  0  0  0
 23 20  1  0  0  0  0
 24  2  1  0  0  0  0
 24 25  1  0  0  0  0
 26 28  1  0  0  0  0
 26 29  1  0  0  0  0
 27 26  1  0  0  0  0
 29  1  1  0  0  0  0
 29 30  1  0  0  0  0
 29 31  1  0  0  0  0
 32  1  1  0  0  0  0
 32 33  1  0  0  0  0
 32 34  1  0  0  0  0
 35 37  1  0  0  0  0
 35 32  1  0  0  0  0
 36 35  1  0  0  0  0
 38  4  1  0  0  0  0
 38 39  1  0  0  0  0
 40 38  1  0  0  0  0
 41  7  1  0  0  0  0
 41 40  2  0  0  0  0
 42 41  1  0  0  0  0
 43 42  1  0  0  0  0
 44 42  2  0  0  0  0
 44 45  1  0  0  0  0
 45 47  2  0  0  0  0
 46 45  1  0  0  0  0
 47 40  1  0  0  0  0
 47 48  1  0  0  0  0
 49 50  1  0  0  0  0
 49  8  1  0  0  0  0
 51 49  1  0  0  0  0
 52 49  1  0  0  0  0
 53  1  1  0  0  0  0
 53 54  1  0  0  0  0
 53 55  1  0  0  0  0
 56 58  1  0  0  0  0
 56 53  1  0  0  0  0
 57 56  1  0  0  0  0
 59  3  1  0  0  0  0
 59 60  1  0  0  0  0
 61 59  1  0  0  0  0
 62  5  1  0  0  0  0
 62 61  2  0  0  0  0
 63 62  1  0  0  0  0
 64 63  1  0  0  0  0
 65 63  2  0  0  0  0
 65 66  1  0  0  0  0
 66 68  2  0  0  0  0
 67 66  1  0  0  0  0
 68 61  1  0  0  0  0
 68 69  1  0  0  0  0
 70 71  1  0  0  0  0
 70  6  1  0  0  0  0
 72 70  1  0  0  0  0
 73 70  1  0  0  0  0
M  CHG  3   5  -1   7  -1   9  -1
M  END
