32,33,34,38,43
q = -2.0, confidence = 0.838

 46 46  0  0  0  0  0  0  0  0999 V2000
    2.7978   -0.0810   -1.0945 P   0  0  1  0  0  0  0  0  0  0  0  0
   -1.7667   -2.0059   -0.8904 P   0  0  0  0  0  4  0  0  0  0  0  0
   -1.3409    2.3799   -0.8796 P   0  0  2  0  0  0  0  0  0  0  0  0
    0.8387   -2.0855    1.8410 C   0  0  0  0  0  0  0  0  0  0  0  0
    1.5090   -2.5240    2.6121 H   0  0  0  0  0  0  0  0  0  0  0  0
    0.6157   -2.8672    1.0928 H   0  0  0  0  0  0  0  0  0  0  0  0
   -0.4436   -1.5560    2.4706 C   0  0  0  0  0  0  0  0  0  0  0  0
   -0.2142   -0.8973    3.3292 H   0  0  0  0  0  0  0  0  0  0  0  0
   -1.0535   -2.3899    2.8734 H   0  0  0  0  0  0  0  0  0  0  0  0
   -1.7640    0.5189    2.0570 C   0  0  0  0  0  0  0  0  0  0  0  0
   -2.4780    0.9451    1.3308 H   0  0  0  0  0  0  0  0  0  0  0  0
   -2.3064    0.3272    3.0089 H   0  0  0  0  0  0  0  0  0  0  0  0
   -0.6185    1.5001    2.2860 C   0  0  0  0  0  0  0  0  0  0  0  0
   -0.0459    1.2421    3.1972 H   0  0  0  0  0  0  0  0  0  0  0  0
   -1.0368    2.5143    2.4423 H   0  0  0  0  0  0  0  0  0  0  0  0
    1.7720    1.4643    1.5937 C   0  0  0  0  0  0  0  0  0  0  0  0
    1.9433    2.2032    2.4056 H   0  0  0  0  0  0  0  0  0  0  0  0
    2.4294    1.7296    0.7417 H   0  0  0  0  0  0  0  0  0  0  0  0
    2.1024    0.0513    2.0588 C   0  0  0  0  0  0  0  0  0  0  0  0
    3.2029   -0.0704    2.1052 H   0  0  0  0  0  0  0  0  0  0  0  0
    1.7082   -0.1511    3.0728 H   0  0  0  0  0  0  0  0  0  0  0  0
    2.5155   -1.4610    0.1171 C   0  0  0  0  0  0  0  0  0  0  0  0
    2.0658   -2.3053   -0.4368 H   0  0  0  0  0  0  0  0  0  0  0  0
    3.4526   -1.7880    0.6132 H   0  0  0  0  0  0  0  0  0  0  0  0
   -2.3127   -1.5545    0.8130 C   0  0  0  0  0  0  0  0  0  0  0  0
   -3.2412   -0.9583    0.7384 H   0  0  0  0  0  0  0  0  0  0  0  0
   -2.5433   -2.4801    1.3783 H   0  0  0  0  0  0  0  0  0  0  0  0
    0.1353    2.6654    0.1957 C   0  0  0  0  0  0  0  0  0  0  0  0
    0.9928    2.6906   -0.5023 H   0  0  0  0  0  0  0  0  0  0  0  0
    0.0683    3.6262    0.7467 H   0  0  0  0  0  0  0  0  0  0  0  0
    1.5184   -0.9740    1.1142 N   0  0  0  0  0  0  0  0  0  0  0  0
   -1.2378   -0.7534    1.4768 N   0  0  0  0  0  0  0  0  0  0  0  0
    0.3507    1.5214    1.1283 N   0  0  0  0  0  0  0  0  0  0  0  0
    1.3024    0.4573   -1.2271 O   0  0  0  0  0  1  0  0  0  0  0  0
    3.8466    0.9172   -0.6707 O   0  0  0  0  0  0  0  0  0  0  0  0
    3.1539   -0.8933   -2.4607 O   0  0  0  0  0  0  0  0  0  0  0  0
    3.9392   -0.4894   -2.8842 H   0  0  0  0  0  0  0  0  0  0  0  0
   -0.2310   -1.8235   -0.8628 O   0  0  0  0  0  1  0  0  0  0  0  0
   -2.5325   -1.1633   -1.9965 O   0  0  0  0  0  0  0  0  0  0  0  0
   -2.1723   -0.2096   -1.8574 H   0  0  0  0  0  0  0  0  0  0  0  0
   -2.2475   -3.5238   -1.0831 O   0  0  0  0  0  0  0  0  0  0  0  0
   -2.4273   -3.7612   -2.0178 H   0  0  0  0  0  0  0  0  0  0  0  0
   -1.3740    0.7691   -0.8543 O   0  0  0  0  0  1  0  0  0  0  0  0
   -1.3571    3.1167   -2.1767 O   0  0  0  0  0  0  0  0  0  0  0  0
   -2.6173    2.7703    0.1078 O   0  0  0  0  0  0  0  0  0  0  0  0
   -3.1441    3.4767   -0.3195 H   0  0  0  0  0  0  0  0  0  0  0  0
  1 34  1  6  0  0  0
  1 35  2  0  0  0  0
  1 22  1  0  0  0  0
  2 38  1  0  0  0  0
  2 25  1  0  0  0  0
  3 44  2  6  0  0  0
  3 43  1  0  0  0  0
  3 45  1  0  0  0  0
  3 28  1  0  0  0  0
  4  7  1  0  0  0  0
  4  5  1  0  0  0  0
  6  4  1  0  0  0  0
  7  9  1  0  0  0  0
  7  8  1  0  0  0  0
 10 13  1  0  0  0  0
 10 12  1  0  0  0  0
 11 10  1  0  0  0  0
 13 15  1  0  0  0  0
 13 14  1  0  0  0  0
 16 19  1  0  0  0  0
 16 17  1  0  0  0  0
 18 16  1  0  0  0  0
 19 20  1  0  0  0  0
 19 21  1  0  0  0  0
 22 24  1  0  0  0  0
 22 31  1  0  0  0  0
 23 22  1  0  0  0  0
 25 27  1  0  0  0  0
 25 32  1  0  0  0  0
 26 25  1  0  0  0  0
 28 30  1  0  0  0  0
 28 33  1  0  0  0  0
 29 28  1  0  0  0  0
 31  4  1  0  0  0  0
 31 19  1  0  0  0  0
 32 10  1  0  0  0  0
 32  7  1  0  0  0  0
 33 16  1  0  0  0  0
 33 13  1  0  0  0  0
 36  1  1  0  0  0  0
 37 36  1  0  0  0  0
 39 40  1  0  0  0  0
 39  2  1  0  0  0  0
 41  2  1  0  0  0  0
 42 41  1  0  0  0  0
 46 45  1  0  0  0  0
M  END
