1,3,15
q = -1.0, confidence = 0.0

 36 36  0  0  0  0  0  0  0  0999 V2000
   -0.3897   -2.2584    0.0700 N   0  0  0  0  0  0  0  0  0  0  0  0
    1.4700    2.5075    0.1333 N   0  3  0  0  0  0  0  0  0  0  0  0
    1.7611   -0.5072   -0.0488 C   0  0  0  0  0  3  0  0  0  0  0  0
    2.0503   -1.8562    0.2433 C   0  0  0  0  0  0  0  0  0  0  0  0
    3.3800   -2.3102    0.1779 C   0  0  0  0  0  0  0  0  0  0  0  0
    4.4101   -1.4168   -0.1520 C   0  0  0  0  0  0  0  0  0  0  0  0
    4.1190   -0.0728   -0.4266 C   0  0  0  0  0  0  0  0  0  0  0  0
    2.7868    0.3882   -0.3917 C   0  0  0  0  0  0  0  0  0  0  0  0
    0.9011   -2.7280    0.6732 C   0  0  0  0  0  0  0  0  0  0  0  0
   -1.5330   -2.7854    0.8556 C   0  0  0  0  0  0  0  0  0  0  0  0
   -0.4998   -2.7074   -1.3446 C   0  0  0  0  0  0  0  0  0  0  0  0
    2.4830    1.8126   -0.7716 C   0  0  0  0  0  0  0  0  0  0  0  0
    1.8436    2.3495    1.5792 C   0  0  0  0  0  0  0  0  0  0  0  0
    1.4762    3.9742   -0.2105 C   0  0  0  0  0  0  0  0  0  0  0  0
    0.0639    1.9857   -0.1189 C   0  0  0  0  0  3  0  0  0  0  0  0
    3.6135   -3.3643    0.3938 H   0  0  0  0  0  0  0  0  0  0  0  0
    5.4503   -1.7704   -0.1952 H   0  0  0  0  0  0  0  0  0  0  0  0
    4.9333    0.6219   -0.6865 H   0  0  0  0  0  0  0  0  0  0  0  0
    1.0598   -3.7994    0.4228 H   0  0  0  0  0  0  0  0  0  0  0  0
    0.7831   -2.6673    1.7756 H   0  0  0  0  0  0  0  0  0  0  0  0
   -2.4806   -2.4541    0.3950 H   0  0  0  0  0  0  0  0  0  0  0  0
   -1.4877   -2.3950    1.8887 H   0  0  0  0  0  0  0  0  0  0  0  0
   -1.4907   -3.8955    0.8746 H   0  0  0  0  0  0  0  0  0  0  0  0
   -1.4129   -2.2738   -1.7927 H   0  0  0  0  0  0  0  0  0  0  0  0
   -0.5600   -3.8160   -1.3848 H   0  0  0  0  0  0  0  0  0  0  0  0
    0.3857   -2.3694   -1.9137 H   0  0  0  0  0  0  0  0  0  0  0  0
    3.4029    2.4274   -0.7502 H   0  0  0  0  0  0  0  0  0  0  0  0
    2.0523    1.8797   -1.7924 H   0  0  0  0  0  0  0  0  0  0  0  0
    1.7755    1.2836    1.8530 H   0  0  0  0  0  0  0  0  0  0  0  0
    1.1404    2.9446    2.1884 H   0  0  0  0  0  0  0  0  0  0  0  0
    2.8774    2.7111    1.7246 H   0  0  0  0  0  0  0  0  0  0  0  0
    0.6847    4.4803    0.3699 H   0  0  0  0  0  0  0  0  0  0  0  0
    1.2786    4.0900   -1.2910 H   0  0  0  0  0  0  0  0  0  0  0  0
    2.4633    4.4025    0.0415 H   0  0  0  0  0  0  0  0  0  0  0  0
   -0.6011    2.4854    0.6085 H   0  0  0  0  0  0  0  0  0  0  0  0
   -0.2178    2.2996   -1.1418 H   0  0  0  0  0  0  0  0  0  0  0  0
  1  9  1  0  0  0  0
  1 10  1  0  0  0  0
  2 13  1  0  0  0  0
  3  4  1  0  0  0  0
  4  9  1  0  0  0  0
  5  4  2  0  0  0  0
  5 16  1  0  0  0  0
  6  5  1  0  0  0  0
  7  8  1  0  0  0  0
  7  6  2  0  0  0  0
  8  3  2  0  0  0  0
  9 20  1  0  0  0  0
 10 23  1  0  0  0  0
 10 22  1  0  0  0  0
 11  1  1  0  0  0  0
 12 27  1  0  0  0  0
 12  8  1  0  0  0  0
 12  2  1  0  0  0  0
 13 31  1  0  0  0  0
 13 29  1  0  0  0  0
 13 30  1  0  0  0  0
 14 34  1  0  0  0  0
 14  2  1  0  0  0  0
 14 32  1  0  0  0  0
 15  2  1  0  0  0  0
 15 35  1  0  0  0  0
 17  6  1  0  0  0  0
 18  7  1  0  0  0  0
 19  9  1  0  0  0  0
 21 10  1  0  0  0  0
 24 11  1  0  0  0  0
 25 11  1  0  0  0  0
 26 11  1  0  0  0  0
 28 12  1  0  0  0  0
 33 14  1  0  0  0  0
 36 15  1  0  0  0  0
M  CHG  1   2   1
M  END
