1,5,31
q = -2.0, confidence = 0.856

 57 57  0  0  1  0  0  0  0  0999 V2000
    0.0009   -2.2204   -0.0005 N   0  0  0  0  0  2  0  0  0  0  0  0
   -0.8791   -2.8614   -0.8093 C   0  0  2  0  0  3  0  0  0  0  0  0
   -0.8984   -4.2620   -0.8203 C   0  0  0  0  0  0  0  0  0  0  0  0
    0.0020   -4.9592   -0.0012 C   0  0  0  0  0  0  0  0  0  0  0  0
   -1.9581   -0.6054   -0.8901 C   0  0  0  0  0  3  0  0  0  0  0  0
   -1.7176   -1.9328   -1.6381 C   0  0  0  0  0  0  0  0  0  0  0  0
   -2.8180   -0.8480    0.3064 C   0  0  0  0  0  0  0  0  0  0  0  0
   -2.2077    0.6025   -1.7185 C   0  0  0  0  0  0  0  0  0  0  0  0
   -3.1643   -1.9694    0.6656 O   0  0  0  0  0  0  0  0  0  0  0  0
   -3.1538    0.2711    1.0132 O   0  0  0  0  0  0  0  0  0  0  0  0
   -3.9964    0.0679    2.1647 C   0  0  0  0  0  0  0  0  0  0  0  0
   -5.4648    0.0143    1.7743 C   0  0  0  0  0  0  0  0  0  0  0  0
   -2.8546    1.5959   -1.4149 O   0  0  0  0  0  0  0  0  0  0  0  0
   -1.5485    0.5183   -2.9240 O   0  0  0  0  0  0  0  0  0  0  0  0
   -1.6068    1.6971   -3.7413 C   0  0  0  0  0  0  0  0  0  0  0  0
   -0.7379    1.4594   -4.9605 C   0  0  0  0  0  0  0  0  0  0  0  0
   -1.6182   -4.7916   -1.4592 H   0  0  0  0  0  0  0  0  0  0  0  0
    0.0024   -6.0598   -0.0015 H   0  0  0  0  0  0  0  0  0  0  0  0
   -1.1705   -1.7097   -2.5764 H   0  0  0  0  0  0  0  0  0  0  0  0
   -2.6733   -2.4245   -1.9171 H   0  0  0  0  0  0  0  0  0  0  0  0
   -3.6868   -0.8645    2.6791 H   0  0  0  0  0  0  0  0  0  0  0  0
   -3.7830    0.9348    2.8222 H   0  0  0  0  0  0  0  0  0  0  0  0
   -6.1018   -0.0412    2.6805 H   0  0  0  0  0  0  0  0  0  0  0  0
   -5.6660   -0.8814    1.1554 H   0  0  0  0  0  0  0  0  0  0  0  0
   -5.7500    0.9165    1.1978 H   0  0  0  0  0  0  0  0  0  0  0  0
   -2.6638    1.9047   -4.0152 H   0  0  0  0  0  0  0  0  0  0  0  0
   -1.2591    2.5689   -3.1455 H   0  0  0  0  0  0  0  0  0  0  0  0
   -0.7631    2.3441   -5.6275 H   0  0  0  0  0  0  0  0  0  0  0  0
   -1.0917    0.5813   -5.5369 H   0  0  0  0  0  0  0  0  0  0  0  0
    0.3153    1.2759   -4.6667 H   0  0  0  0  0  0  0  0  0  0  0  0
    1.9587   -0.6043    0.8900 C   0  0  0  0  0  3  0  0  0  0  0  0
    0.8815   -2.8611    0.8080 C   0  0  0  0  0  0  0  0  0  0  0  0
    0.9019   -4.2617    0.8183 C   0  0  0  0  0  0  0  0  0  0  0  0
    1.7192   -1.9323    1.6372 C   0  0  0  0  0  0  0  0  0  0  0  0
    2.8188   -0.8455   -0.3066 C   0  0  0  0  0  0  0  0  0  0  0  0
    2.2070    0.6035    1.7190 C   0  0  0  0  0  0  0  0  0  0  0  0
    1.6221   -4.7910    1.4569 H   0  0  0  0  0  0  0  0  0  0  0  0
    1.1720   -1.7101    2.5756 H   0  0  0  0  0  0  0  0  0  0  0  0
    2.6753   -2.4233    1.9161 H   0  0  0  0  0  0  0  0  0  0  0  0
    3.1653   -1.9665   -0.6669 O   0  0  0  0  0  0  0  0  0  0  0  0
    3.1546    0.2743   -1.0123 O   0  0  0  0  0  0  0  0  0  0  0  0
    2.8528    1.5978    1.4160 O   0  0  0  0  0  0  0  0  0  0  0  0
    1.5479    0.5178    2.9245 O   0  0  0  0  0  0  0  0  0  0  0  0
    3.9970    0.0721   -2.1642 C   0  0  0  0  0  0  0  0  0  0  0  0
    1.6046    1.6963    3.7424 C   0  0  0  0  0  0  0  0  0  0  0  0
    5.4654    0.0176   -1.7742 C   0  0  0  0  0  0  0  0  0  0  0  0
    3.6871   -0.8597   -2.6796 H   0  0  0  0  0  0  0  0  0  0  0  0
    3.7837    0.9398   -2.8206 H   0  0  0  0  0  0  0  0  0  0  0  0
    0.7352    1.4573    4.9609 C   0  0  0  0  0  0  0  0  0  0  0  0
    2.6614    1.9046    4.0171 H   0  0  0  0  0  0  0  0  0  0  0  0
    1.2567    2.5681    3.1468 H   0  0  0  0  0  0  0  0  0  0  0  0
    6.1022   -0.0371   -2.6805 H   0  0  0  0  0  0  0  0  0  0  0  0
    5.6665   -0.8788   -1.1562 H   0  0  0  0  0  0  0  0  0  0  0  0
    5.7511    0.9191   -1.1967 H   0  0  0  0  0  0  0  0  0  0  0  0
    0.7594    2.3417    5.6284 H   0  0  0  0  0  0  0  0  0  0  0  0
    1.0893    0.5792    5.5371 H   0  0  0  0  0  0  0  0  0  0  0  0
   -0.3176    1.2731    4.6664 H   0  0  0  0  0  0  0  0  0  0  0  0
  1 32  1  0  0  0  0
  2  6  1  6  0  0  0
  2  1  1  0  0  0  0
  3  2  1  0  0  0  0
  3  4  2  0  0  0  0
  4 33  1  0  0  0  0
  5  7  1  0  0  0  0
  6  5  1  0  0  0  0
  7  9  2  0  0  0  0
  7 10  1  0  0  0  0
  8 13  2  0  0  0  0
  8  5  1  0  0  0  0
 10 11  1  0  0  0  0
 11 21  1  0  0  0  0
 11 22  1  0  0  0  0
 12 11  1  0  0  0  0
 12 23  1  0  0  0  0
 14  8  1  0  0  0  0
 15 27  1  0  0  0  0
 15 14  1  0  0  0  0
 16 30  1  0  0  0  0
 16 15  1  0  0  0  0
 17  3  1  0  0  0  0
 18  4  1  0  0  0  0
 19  6  1  0  0  0  0
 20  6  1  0  0  0  0
 24 12  1  0  0  0  0
 25 12  1  0  0  0  0
 26 15  1  0  0  0  0
 28 16  1  0  0  0  0
 29 16  1  0  0  0  0
 31 34  1  0  0  0  0
 31 36  1  0  0  0  0
 32 33  2  0  0  0  0
 32 34  1  0  0  0  0
 33 37  1  0  0  0  0
 34 39  1  0  0  0  0
 34 38  1  0  0  0  0
 35 31  1  0  0  0  0
 36 43  1  0  0  0  0
 40 35  2  0  0  0  0
 41 35  1  0  0  0  0
 42 36  2  0  0  0  0
 43 45  1  0  0  0  0
 44 46  1  0  0  0  0
 44 41  1  0  0  0  0
 45 50  1  0  0  0  0
 45 49  1  0  0  0  0
 46 54  1  0  0  0  0
 46 53  1  0  0  0  0
 47 44  1  0  0  0  0
 48 44  1  0  0  0  0
 49 56  1  0  0  0  0
 49 55  1  0  0  0  0
 51 45  1  0  0  0  0
 52 46  1  0  0  0  0
 57 49  1  0  0  0  0
M  END
