1,43,46
q = -1.0, confidence = 0.014

 75 78  0  0  1  0  0  0  0  0999 V2000
   -1.9852   -1.7251   -0.8303 N   0  0  0  0  0  2  0  0  0  0  0  0
   -2.1393   -2.7937   -1.6273 C   0  0  0  0  0  0  0  0  0  0  0  0
   -3.4106   -3.4208   -1.7680 C   0  0  0  0  0  0  0  0  0  0  0  0
   -3.4972   -4.2961   -2.4265 H   0  0  0  0  0  0  0  0  0  0  0  0
   -4.4916   -2.9573   -1.0480 C   0  0  0  0  0  0  0  0  0  0  0  0
   -5.4689   -3.4613   -1.1001 H   0  0  0  0  0  0  0  0  0  0  0  0
   -4.3495   -1.8005   -0.2330 C   0  0  0  0  0  0  0  0  0  0  0  0
   -3.0605   -1.1620   -0.1952 C   0  0  2  0  0  3  0  0  0  0  0  0
   -2.9353    0.0783    0.5096 C   0  0  0  0  0  0  0  0  0  0  0  0
   -4.0263    0.5717    1.2294 C   0  0  0  0  0  0  0  0  0  0  0  0
   -3.9345    1.5312    1.7585 H   0  0  0  0  0  0  0  0  0  0  0  0
   -5.2621   -0.1157    1.2707 C   0  0  0  0  0  0  0  0  0  0  0  0
   -6.0909    0.2945    1.8655 H   0  0  0  0  0  0  0  0  0  0  0  0
   -5.4295   -1.2705    0.5244 C   0  0  0  0  0  0  0  0  0  0  0  0
   -6.3979   -1.7934    0.4999 H   0  0  0  0  0  0  0  0  0  0  0  0
   -0.9374   -3.3477   -2.3205 C   0  0  0  0  0  0  0  0  0  0  0  0
   -0.3126   -2.5353   -2.7438 H   0  0  0  0  0  0  0  0  0  0  0  0
   -1.2222   -4.0633   -3.1140 H   0  0  0  0  0  0  0  0  0  0  0  0
   -0.2951   -3.8663   -1.5737 H   0  0  0  0  0  0  0  0  0  0  0  0
   -1.4478    1.1605    0.4619 P   0  0  0  0  0  4  0  0  0  0  0  0
   -0.5969    1.0816    2.0644 C   0  0  0  0  0  0  0  0  0  0  0  0
    0.3533    2.0691    2.4016 C   0  0  0  0  0  0  0  0  0  0  0  0
    0.6260    2.8557    1.6861 H   0  0  0  0  0  0  0  0  0  0  0  0
    0.9638    2.0399    3.6620 C   0  0  0  0  0  0  0  0  0  0  0  0
    1.7114    2.8059    3.9165 H   0  0  0  0  0  0  0  0  0  0  0  0
    0.6259    1.0407    4.5878 C   0  0  0  0  0  0  0  0  0  0  0  0
    1.0983    1.0288    5.5821 H   0  0  0  0  0  0  0  0  0  0  0  0
   -0.3016    0.0457    4.2410 C   0  0  0  0  0  0  0  0  0  0  0  0
   -0.5449   -0.7604    4.9486 H   0  0  0  0  0  0  0  0  0  0  0  0
   -0.9135    0.0591    2.9814 C   0  0  0  0  0  0  0  0  0  0  0  0
   -1.6141   -0.7406    2.7025 H   0  0  0  0  0  0  0  0  0  0  0  0
   -2.2258    2.8415    0.4102 C   0  0  0  0  0  0  0  0  0  0  0  0
   -2.9023    3.2412   -0.7633 C   0  0  0  0  0  0  0  0  0  0  0  0
   -2.9445    2.5633   -1.6266 H   0  0  0  0  0  0  0  0  0  0  0  0
   -3.5269    4.4926   -0.8186 C   0  0  0  0  0  0  0  0  0  0  0  0
   -4.0460    4.7965   -1.7402 H   0  0  0  0  0  0  0  0  0  0  0  0
   -3.4935    5.3560    0.2888 C   0  0  0  0  0  0  0  0  0  0  0  0
   -3.9843    6.3399    0.2385 H   0  0  0  0  0  0  0  0  0  0  0  0
   -2.8388    4.9551    1.4614 C   0  0  0  0  0  0  0  0  0  0  0  0
   -2.8163    5.6185    2.3393 H   0  0  0  0  0  0  0  0  0  0  0  0
   -2.2089    3.7017    1.5268 C   0  0  0  0  0  0  0  0  0  0  0  0
   -1.7113    3.3970    2.4574 H   0  0  0  0  0  0  0  0  0  0  0  0
   -0.2962    0.8860   -0.9418 C   0  0  2  0  0  3  0  0  0  0  0  0
    1.0055    1.5951   -0.7920 C   0  0  1  0  0  3  0  0  0  0  0  0
    2.0271    0.9275   -0.1606 C   0  0  1  0  0  3  0  0  0  0  0  0
    1.9022   -0.5441   -0.0127 C   0  0  2  0  0  3  0  0  0  0  0  0
   -0.9566    0.9132   -2.2710 C   0  0  0  0  0  0  0  0  0  0  0  0
   -2.1553    0.7540   -2.4936 O   0  0  0  0  0  0  0  0  0  0  0  0
   -0.0430    1.0853   -3.2580 O   0  0  0  0  0  0  0  0  0  0  0  0
   -0.5589    1.0684   -4.5905 C   0  0  0  0  0  0  0  0  0  0  0  0
    0.3120    1.2119   -5.2542 H   0  0  0  0  0  0  0  0  0  0  0  0
   -1.2991    1.8808   -4.7386 H   0  0  0  0  0  0  0  0  0  0  0  0
   -1.0534    0.1003   -4.8088 H   0  0  0  0  0  0  0  0  0  0  0  0
    1.1021    2.9692   -1.3554 C   0  0  0  0  0  0  0  0  0  0  0  0
    0.1577    3.7407   -1.4482 O   0  0  0  0  0  0  0  0  0  0  0  0
    2.3483    3.2605   -1.8002 O   0  0  0  0  0  0  0  0  0  0  0  0
    2.5223    4.5887   -2.2974 C   0  0  0  0  0  0  0  0  0  0  0  0
    1.7992    4.8034   -3.1097 H   0  0  0  0  0  0  0  0  0  0  0  0
    3.5589    4.6421   -2.6749 H   0  0  0  0  0  0  0  0  0  0  0  0
    2.3654    5.3346   -1.4908 H   0  0  0  0  0  0  0  0  0  0  0  0
    3.2896    1.5840    0.3061 C   0  0  0  0  0  0  0  0  0  0  0  0
    4.3971    1.0889    0.2293 O   0  0  0  0  0  0  0  0  0  0  0  0
    3.0463    2.7959    0.8819 O   0  0  0  0  0  0  0  0  0  0  0  0
    4.2152    3.4994    1.3091 C   0  0  0  0  0  0  0  0  0  0  0  0
    4.8192    2.8771    1.9996 H   0  0  0  0  0  0  0  0  0  0  0  0
    3.8575    4.4128    1.8175 H   0  0  0  0  0  0  0  0  0  0  0  0
    4.8514    3.7663    0.4402 H   0  0  0  0  0  0  0  0  0  0  0  0
    2.7179   -1.1793    1.0933 C   0  0  0  0  0  0  0  0  0  0  0  0
    3.4128   -2.1694    1.0374 O   0  0  0  0  0  0  0  0  0  0  0  0
    2.5512   -0.4413    2.2310 O   0  0  0  0  0  0  0  0  0  0  0  0
    3.2434   -0.9601    3.3692 C   0  0  0  0  0  0  0  0  0  0  0  0
    2.8520   -1.9641    3.6307 H   0  0  0  0  0  0  0  0  0  0  0  0
    3.0563   -0.2472    4.1914 H   0  0  0  0  0  0  0  0  0  0  0  0
    4.3290   -1.0460    3.1610 H   0  0  0  0  0  0  0  0  0  0  0  0
    2.5718   -1.4824   -1.9538 I   0  0  0  0  0  0  0  0  0  0  0  0
  2  1  1  0  0  0  0
  3  2  2  0  0  0  0
  3  5  1  0  0  0  0
  4  3  1  0  0  0  0
  5  7  2  0  0  0  0
  6  5  1  0  0  0  0
  7  8  1  0  0  0  0
  7 14  1  0  0  0  0
  8  1  1  6  0  0  0
  8  9  1  0  0  0  0
  9 10  2  0  0  0  0
 10 12  1  0  0  0  0
 10 11  1  0  0  0  0
 12 13  1  0  0  0  0
 14 12  2  0  0  0  0
 15 14  1  0  0  0  0
 16  2  1  0  0  0  0
 16 19  1  0  0  0  0
 17 16  1  0  0  0  0
 18 16  1  0  0  0  0
 20  9  1  0  0  0  0
 20 21  1  0  0  0  0
 21 22  2  0  0  0  0
 21 30  1  0  0  0  0
 22 24  1  0  0  0  0
 23 22  1  0  0  0  0
 24 25  1  0  0  0  0
 24 26  2  0  0  0  0
 26 27  1  0  0  0  0
 28 26  1  0  0  0  0
 28 29  1  0  0  0  0
 30 28  2  0  0  0  0
 31 30  1  0  0  0  0
 32 20  1  0  0  0  0
 32 41  1  0  0  0  0
 33 32  2  0  0  0  0
 34 33  1  0  0  0  0
 35 33  1  0  0  0  0
 35 37  2  0  0  0  0
 36 35  1  0  0  0  0
 37 39  1  0  0  0  0
 38 37  1  0  0  0  0
 39 41  2  0  0  0  0
 39 40  1  0  0  0  0
 41 42  1  0  0  0  0
 43 47  1  6  0  0  0
 43 44  1  0  0  0  0
 43 20  1  0  0  0  0
 44 54  1  6  0  0  0
 44 45  1  0  0  0  0
 45 46  1  0  0  0  0
 45 61  1  6  0  0  0
 46 75  1  6  0  0  0
 46 68  1  0  0  0  0
 48 47  2  0  0  0  0
 49 47  1  0  0  0  0
 50 49  1  0  0  0  0
 51 50  1  0  0  0  0
 52 50  1  0  0  0  0
 53 50  1  0  0  0  0
 55 54  2  0  0  0  0
 56 54  1  0  0  0  0
 57 56  1  0  0  0  0
 57 60  1  0  0  0  0
 58 57  1  0  0  0  0
 59 57  1  0  0  0  0
 61 63  1  0  0  0  0
 62 61  2  0  0  0  0
 63 64  1  0  0  0  0
 64 66  1  0  0  0  0
 64 65  1  0  0  0  0
 67 64  1  0  0  0  0
 68 70  1  0  0  0  0
 69 68  2  0  0  0  0
 70 71  1  0  0  0  0
 71 72  1  0  0  0  0
 71 73  1  0  0  0  0
 74 71  1  0  0  0  0
M  END
