1,6,34
q = -1.0, confidence = 0.108

 53 58  0  0  0  0  0  0  0  0999 V2000
    1.0565   -0.0000    1.1309 N   0  0  0  0  0  2  0  0  0  0  0  0
    1.8912   -1.2055    1.2859 C   0  0  0  0  0  0  0  0  0  0  0  0
    2.4937   -1.0517    2.2108 H   0  0  0  0  0  0  0  0  0  0  0  0
    1.0835   -2.4693    1.5064 C   0  0  0  0  0  0  0  0  0  0  0  0
    0.2147   -2.9407    0.4867 C   0  0  0  0  0  0  0  0  0  0  0  0
   -0.0056   -2.1773   -0.7506 C   0  0  0  0  0  3  0  0  0  0  0  0
   -0.8891   -2.5216   -1.3177 H   0  0  0  0  0  0  0  0  0  0  0  0
    1.0100   -1.5089   -1.5049 C   0  0  0  0  0  3  0  0  0  0  0  0
    0.8142   -1.3989   -2.5874 H   0  0  0  0  0  0  0  0  0  0  0  0
    2.4401   -1.5719   -1.1735 C   0  0  0  0  0  0  0  0  0  0  0  0
    2.8936   -1.4948    0.1693 C   0  0  0  0  0  0  0  0  0  0  0  0
    1.2205   -3.2123    2.6909 C   0  0  0  0  0  0  0  0  0  0  0  0
    1.8925   -2.8354    3.4782 H   0  0  0  0  0  0  0  0  0  0  0  0
    0.5193   -4.4126    2.8844 C   0  0  0  0  0  0  0  0  0  0  0  0
    0.6387   -4.9760    3.8222 H   0  0  0  0  0  0  0  0  0  0  0  0
   -0.3333   -4.8857    1.8751 C   0  0  0  0  0  0  0  0  0  0  0  0
   -0.8845   -5.8291    2.0095 H   0  0  0  0  0  0  0  0  0  0  0  0
   -0.4878   -4.1490    0.6932 C   0  0  0  0  0  0  0  0  0  0  0  0
   -1.1628   -4.5121   -0.0964 H   0  0  0  0  0  0  0  0  0  0  0  0
    3.3876   -1.7514   -2.2050 C   0  0  0  0  0  0  0  0  0  0  0  0
    3.0373   -1.7867   -3.2490 H   0  0  0  0  0  0  0  0  0  0  0  0
    4.7484   -1.9087   -1.9198 C   0  0  0  0  0  0  0  0  0  0  0  0
    5.4688   -2.0541   -2.7390 H   0  0  0  0  0  0  0  0  0  0  0  0
    5.1880   -1.8769   -0.5863 C   0  0  0  0  0  0  0  0  0  0  0  0
    6.2566   -1.9961   -0.3511 H   0  0  0  0  0  0  0  0  0  0  0  0
    4.2606   -1.6669    0.4424 C   0  0  0  0  0  0  0  0  0  0  0  0
    4.6035   -1.6066    1.4882 H   0  0  0  0  0  0  0  0  0  0  0  0
    1.8918    1.2052    1.2853 C   0  0  0  0  0  0  0  0  0  0  0  0
    2.4950    1.0510    2.2097 H   0  0  0  0  0  0  0  0  0  0  0  0
    2.8935    1.4945    0.1680 C   0  0  0  0  0  0  0  0  0  0  0  0
    2.4391    1.5730   -1.1744 C   0  0  0  0  0  0  0  0  0  0  0  0
    1.0087    1.5106   -1.5049 C   0  0  0  0  0  3  0  0  0  0  0  0
    0.8121    1.4008   -2.5872 H   0  0  0  0  0  0  0  0  0  0  0  0
   -0.0063    2.1783   -0.7496 C   0  0  0  0  0  3  0  0  0  0  0  0
   -0.8904    2.5224   -1.3157 H   0  0  0  0  0  0  0  0  0  0  0  0
    0.2148    2.9409    0.4880 C   0  0  0  0  0  0  0  0  0  0  0  0
    1.0844    2.4690    1.5068 C   0  0  0  0  0  0  0  0  0  0  0  0
    4.2608    1.6656    0.4402 C   0  0  0  0  0  0  0  0  0  0  0  0
    4.6045    1.6042    1.4856 H   0  0  0  0  0  0  0  0  0  0  0  0
    5.1875    1.8760   -0.5891 C   0  0  0  0  0  0  0  0  0  0  0  0
    6.2563    1.9944   -0.3546 H   0  0  0  0  0  0  0  0  0  0  0  0
    4.7469    1.9094   -1.9222 C   0  0  0  0  0  0  0  0  0  0  0  0
    5.4667    2.0553   -2.7418 H   0  0  0  0  0  0  0  0  0  0  0  0
    3.3858    1.7530   -2.2065 C   0  0  0  0  0  0  0  0  0  0  0  0
    3.0347    1.7894   -3.2502 H   0  0  0  0  0  0  0  0  0  0  0  0
   -0.4877    4.1490    0.6957 C   0  0  0  0  0  0  0  0  0  0  0  0
   -1.1633    4.5125   -0.0932 H   0  0  0  0  0  0  0  0  0  0  0  0
   -0.3323    4.8852    1.8779 C   0  0  0  0  0  0  0  0  0  0  0  0
   -0.8835    5.8284    2.0132 H   0  0  0  0  0  0  0  0  0  0  0  0
    0.5211    4.4116    2.8862 C   0  0  0  0  0  0  0  0  0  0  0  0
    0.6413    4.9746    3.8243 H   0  0  0  0  0  0  0  0  0  0  0  0
    1.2223    3.2115    2.6916 C   0  0  0  0  0  0  0  0  0  0  0  0
    1.8950    2.8342    3.4782 H   0  0  0  0  0  0  0  0  0  0  0  0
  1 28  1  0  0  0  0
  1  2  1  0  0  0  0
  2  4  1  0  0  0  0
  2  3  1  0  0  0  0
  4 12  1  0  0  0  0
  5 18  1  0  0  0  0
  5  4  2  0  0  0  0
  6  5  1  0  0  0  0
  7  6  1  0  0  0  0
  8 10  1  0  0  0  0
  8  6  1  0  0  0  0
  9  8  1  0  0  0  0
 10 11  1  0  0  0  0
 11 26  2  0  0  0  0
 11  2  1  0  0  0  0
 12 14  2  0  0  0  0
 12 13  1  0  0  0  0
 14 15  1  0  0  0  0
 16 17  1  0  0  0  0
 16 14  1  0  0  0  0
 18 16  2  0  0  0  0
 19 18  1  0  0  0  0
 20 22  1  0  0  0  0
 20 10  2  0  0  0  0
 21 20  1  0  0  0  0
 22 24  2  0  0  0  0
 23 22  1  0  0  0  0
 24 25  1  0  0  0  0
 24 26  1  0  0  0  0
 26 27  1  0  0  0  0
 28 37  1  0  0  0  0
 28 29  1  0  0  0  0
 30 38  1  0  0  0  0
 30 28  1  0  0  0  0
 31 30  2  0  0  0  0
 32 31  1  0  0  0  0
 32 34  1  0  0  0  0
 33 32  1  0  0  0  0
 34 36  1  0  0  0  0
 35 34  1  0  0  0  0
 36 46  2  0  0  0  0
 36 37  1  0  0  0  0
 37 52  2  0  0  0  0
 38 39  1  0  0  0  0
 40 41  1  0  0  0  0
 40 38  2  0  0  0  0
 42 40  1  0  0  0  0
 43 42  1  0  0  0  0
 44 42  2  0  0  0  0
 44 31  1  0  0  0  0
 45 44  1  0  0  0  0
 46 48  1  0  0  0  0
 47 46  1  0  0  0  0
 48 49  1  0  0  0  0
 48 50  2  0  0  0  0
 50 51  1  0  0  0  0
 52 50  1  0  0  0  0
 52 53  1  0  0  0  0
M  END
