1,10,36
q = -1.0, confidence = 0.212

 71 77  0  0  1  0  0  0  0  0999 V2000
    1.2300   -0.6123    0.7618 N   0  0  0  0  0  2  0  0  0  0  0  0
    2.6698   -0.3755    0.6639 C   0  0  0  0  0  0  0  0  0  0  0  0
    3.1964   -0.8787    1.5012 H   0  0  0  0  0  0  0  0  0  0  0  0
   -1.3735    0.0311    1.0729 N   0  0  0  0  0  0  0  0  0  0  0  0
   -1.2441    0.9380    1.5490 H   0  0  0  0  0  0  0  0  0  0  0  0
    3.2184   -0.9776   -0.6200 C   0  0  0  0  0  0  0  0  0  0  0  0
    2.6415   -0.6314   -1.8721 C   0  0  0  0  0  0  0  0  0  0  0  0
    1.5666    0.3700   -1.9964 C   0  0  0  0  0  3  0  0  0  0  0  0
    1.1629    0.4478   -3.0227 H   0  0  0  0  0  0  0  0  0  0  0  0
    1.4513    1.5728   -1.2040 C   0  0  0  0  0  3  0  0  0  0  0  0
    0.9599    2.4232   -1.7072 H   0  0  0  0  0  0  0  0  0  0  0  0
    2.3857    2.0127   -0.1452 C   0  0  0  0  0  0  0  0  0  0  0  0
    3.0235    1.1065    0.7449 C   0  0  0  0  0  0  0  0  0  0  0  0
    4.2702   -1.9065   -0.5733 C   0  0  0  0  0  0  0  0  0  0  0  0
    4.7088   -2.1644    0.4042 H   0  0  0  0  0  0  0  0  0  0  0  0
    4.7482   -2.5258   -1.7380 C   0  0  0  0  0  0  0  0  0  0  0  0
    5.5637   -3.2621   -1.6770 H   0  0  0  0  0  0  0  0  0  0  0  0
    4.1642   -2.2110   -2.9747 C   0  0  0  0  0  0  0  0  0  0  0  0
    4.5220   -2.6939   -3.8969 H   0  0  0  0  0  0  0  0  0  0  0  0
    3.1245   -1.2748   -3.0343 C   0  0  0  0  0  0  0  0  0  0  0  0
    2.6752   -1.0153   -4.0062 H   0  0  0  0  0  0  0  0  0  0  0  0
    2.6727    3.3901   -0.0199 C   0  0  0  0  0  0  0  0  0  0  0  0
    2.1834    4.0977   -0.7079 H   0  0  0  0  0  0  0  0  0  0  0  0
    3.5716    3.8649    0.9459 C   0  0  0  0  0  0  0  0  0  0  0  0
    3.7728    4.9442    1.0241 H   0  0  0  0  0  0  0  0  0  0  0  0
    4.2088    2.9617    1.8089 C   0  0  0  0  0  0  0  0  0  0  0  0
    4.9062    3.3242    2.5793 H   0  0  0  0  0  0  0  0  0  0  0  0
    3.9336    1.5884    1.6969 C   0  0  0  0  0  0  0  0  0  0  0  0
    4.4211    0.8719    2.3779 H   0  0  0  0  0  0  0  0  0  0  0  0
   -2.8116   -0.0507    0.6724 C   0  0  0  0  0  0  0  0  0  0  0  0
   -3.4302   -0.2573    1.5713 H   0  0  0  0  0  0  0  0  0  0  0  0
   -3.2265    1.3107    0.1512 C   0  0  0  0  0  0  0  0  0  0  0  0
   -2.5381    1.9075   -0.9436 C   0  0  0  0  0  0  0  0  0  0  0  0
   -1.4857    1.2225   -1.7123 C   0  0  0  0  0  3  0  0  0  0  0  0
   -1.0254    1.8799   -2.4714 H   0  0  0  0  0  0  0  0  0  0  0  0
   -1.4566   -0.1779   -2.0467 C   0  0  0  0  0  3  0  0  0  0  0  0
   -0.9888   -0.4276   -3.0147 H   0  0  0  0  0  0  0  0  0  0  0  0
   -2.3752   -1.2238   -1.5662 C   0  0  0  0  0  0  0  0  0  0  0  0
   -3.0396   -1.1869   -0.3044 C   0  0  0  0  0  0  0  0  0  0  0  0
   -4.2545    2.0136    0.8033 C   0  0  0  0  0  0  0  0  0  0  0  0
   -4.7746    1.5319    1.6472 H   0  0  0  0  0  0  0  0  0  0  0  0
   -4.6123    3.3116    0.4127 C   0  0  0  0  0  0  0  0  0  0  0  0
   -5.4161    3.8469    0.9395 H   0  0  0  0  0  0  0  0  0  0  0  0
   -3.9192    3.9220   -0.6445 C   0  0  0  0  0  0  0  0  0  0  0  0
   -4.1770    4.9450   -0.9585 H   0  0  0  0  0  0  0  0  0  0  0  0
   -2.9010    3.2272   -1.3067 C   0  0  0  0  0  0  0  0  0  0  0  0
   -2.3708    3.7032   -2.1464 H   0  0  0  0  0  0  0  0  0  0  0  0
   -2.5960   -2.3532   -2.3930 C   0  0  0  0  0  0  0  0  0  0  0  0
   -2.0791   -2.3972   -3.3643 H   0  0  0  0  0  0  0  0  0  0  0  0
   -3.4517   -3.3924   -2.0134 C   0  0  0  0  0  0  0  0  0  0  0  0
   -3.5997   -4.2522   -2.6845 H   0  0  0  0  0  0  0  0  0  0  0  0
   -4.1176   -3.3354   -0.7791 C   0  0  0  0  0  0  0  0  0  0  0  0
   -4.7905   -4.1477   -0.4666 H   0  0  0  0  0  0  0  0  0  0  0  0
   -3.9013   -2.2342    0.0621 C   0  0  0  0  0  0  0  0  0  0  0  0
   -4.4055   -2.1863    1.0410 H   0  0  0  0  0  0  0  0  0  0  0  0
    0.6766   -0.7616    2.1043 C   0  0  1  0  0  0  0  0  0  0  0  0
    0.7859    0.1869    2.7053 H   0  0  0  0  0  0  0  0  0  0  0  0
   -0.8331   -1.0364    1.9533 C   0  0  1  0  0  0  0  0  0  0  0  0
   -0.9392   -1.9878    1.3874 H   0  0  0  0  0  0  0  0  0  0  0  0
   -1.5372   -1.1682    3.3084 C   0  0  0  0  0  0  0  0  0  0  0  0
   -1.4746   -0.1957    3.8475 H   0  0  0  0  0  0  0  0  0  0  0  0
   -2.6153   -1.3872    3.1650 H   0  0  0  0  0  0  0  0  0  0  0  0
   -0.8862   -2.2744    4.1492 C   0  0  0  0  0  0  0  0  0  0  0  0
   -1.3766   -2.3369    5.1426 H   0  0  0  0  0  0  0  0  0  0  0  0
   -1.0600   -3.2540    3.6511 H   0  0  0  0  0  0  0  0  0  0  0  0
    0.6209   -2.0449    4.3010 C   0  0  0  0  0  0  0  0  0  0  0  0
    1.0829   -2.8780    4.8702 H   0  0  0  0  0  0  0  0  0  0  0  0
    0.7915   -1.1241    4.9026 H   0  0  0  0  0  0  0  0  0  0  0  0
    1.3110   -1.8927    2.9398 C   0  0  0  0  0  0  0  0  0  0  0  0
    2.3915   -1.6979    3.0913 H   0  0  0  0  0  0  0  0  0  0  0  0
    1.2371   -2.8358    2.3550 H   0  0  0  0  0  0  0  0  0  0  0  0
  1 56  1  0  0  0  0
  2 13  1  0  0  0  0
  2  1  1  0  0  0  0
  2  3  1  0  0  0  0
  4  5  1  0  0  0  0
  4 58  1  0  0  0  0
  6 14  1  0  0  0  0
  6  2  1  0  0  0  0
  7  6  2  0  0  0  0
  8  7  1  0  0  0  0
  8 10  1  0  0  0  0
  9  8  1  0  0  0  0
 10 12  1  0  0  0  0
 11 10  1  0  0  0  0
 12 22  2  0  0  0  0
 12 13  1  0  0  0  0
 13 28  2  0  0  0  0
 14 15  1  0  0  0  0
 16 17  1  0  0  0  0
 16 14  2  0  0  0  0
 18 16  1  0  0  0  0
 19 18  1  0  0  0  0
 20 18  2  0  0  0  0
 20  7  1  0  0  0  0
 21 20  1  0  0  0  0
 22 24  1  0  0  0  0
 23 22  1  0  0  0  0
 24 25  1  0  0  0  0
 24 26  2  0  0  0  0
 26 27  1  0  0  0  0
 28 26  1  0  0  0  0
 28 29  1  0  0  0  0
 30  4  1  0  0  0  0
 30 31  1  0  0  0  0
 32 30  1  0  0  0  0
 32 40  1  0  0  0  0
 33 32  2  0  0  0  0
 34 33  1  0  0  0  0
 35 34  1  0  0  0  0
 36 34  1  0  0  0  0
 36 38  1  0  0  0  0
 37 36  1  0  0  0  0
 38 39  1  0  0  0  0
 39 54  2  0  0  0  0
 39 30  1  0  0  0  0
 40 41  1  0  0  0  0
 42 40  2  0  0  0  0
 42 43  1  0  0  0  0
 44 42  1  0  0  0  0
 45 44  1  0  0  0  0
 46 33  1  0  0  0  0
 46 44  2  0  0  0  0
 47 46  1  0  0  0  0
 48 50  1  0  0  0  0
 48 38  2  0  0  0  0
 49 48  1  0  0  0  0
 50 52  2  0  0  0  0
 51 50  1  0  0  0  0
 52 53  1  0  0  0  0
 52 54  1  0  0  0  0
 54 55  1  0  0  0  0
 56 57  1  1  0  0  0
 56 69  1  0  0  0  0
 58 59  1  6  0  0  0
 58 56  1  0  0  0  0
 58 60  1  0  0  0  0
 60 61  1  0  0  0  0
 60 63  1  0  0  0  0
 62 60  1  0  0  0  0
 63 66  1  0  0  0  0
 63 64  1  0  0  0  0
 65 63  1  0  0  0  0
 66 67  1  0  0  0  0
 66 68  1  0  0  0  0
 69 70  1  0  0  0  0
 69 66  1  0  0  0  0
 71 69  1  0  0  0  0
M  END
