1,10,32
q = -2.0, confidence = 0.712

 52 54  0  0  0  0  0  0  0  0999 V2000
   -0.8365   -2.6171   -0.2236 N   0  0  0  0  0  2  0  0  0  0  0  0
    0.1874   -3.4875   -0.3545 C   0  0  0  0  0  0  0  0  0  0  0  0
   -0.1724   -4.8223   -0.6602 C   0  0  0  0  0  0  0  0  0  0  0  0
    0.5944   -5.6051   -0.7800 H   0  0  0  0  0  0  0  0  0  0  0  0
   -1.4526   -5.1898   -0.8203 N   0  0  0  0  0  0  0  0  0  0  0  0
   -2.4250   -4.2757   -0.6953 C   0  0  0  0  0  0  0  0  0  0  0  0
   -3.4618   -4.6192   -0.8451 H   0  0  0  0  0  0  0  0  0  0  0  0
   -2.1430   -2.9213   -0.3887 C   0  0  0  0  0  0  0  0  0  0  0  0
    1.5181   -2.8814   -0.1594 C   0  0  0  0  0  0  0  0  0  0  0  0
    1.5731   -1.4659    0.0938 C   0  0  0  0  0  3  0  0  0  0  0  0
    2.8293   -0.8902    0.3059 C   0  0  0  0  0  0  0  0  0  0  0  0
    2.8805    0.1885    0.5176 H   0  0  0  0  0  0  0  0  0  0  0  0
    4.0380   -1.6291    0.2629 C   0  0  0  0  0  0  0  0  0  0  0  0
    3.9513   -3.0105   -0.0012 C   0  0  0  0  0  0  0  0  0  0  0  0
    4.8595   -3.6261   -0.0454 H   0  0  0  0  0  0  0  0  0  0  0  0
    2.7098   -3.6296   -0.2054 C   0  0  0  0  0  0  0  0  0  0  0  0
    2.6787   -4.7133   -0.3992 H   0  0  0  0  0  0  0  0  0  0  0  0
    5.3705   -0.9024    0.5062 C   0  0  0  0  0  0  0  0  0  0  0  0
    5.5326    0.2223   -0.5433 C   0  0  0  0  0  0  0  0  0  0  0  0
    6.4904    0.7596   -0.3858 H   0  0  0  0  0  0  0  0  0  0  0  0
    5.5353   -0.1918   -1.5719 H   0  0  0  0  0  0  0  0  0  0  0  0
    4.7167    0.9696   -0.4785 H   0  0  0  0  0  0  0  0  0  0  0  0
    5.3532   -0.2828    1.9232 C   0  0  0  0  0  0  0  0  0  0  0  0
    6.3043    0.2537    2.1200 H   0  0  0  0  0  0  0  0  0  0  0  0
    4.5253    0.4439    2.0438 H   0  0  0  0  0  0  0  0  0  0  0  0
    5.2313   -1.0664    2.6978 H   0  0  0  0  0  0  0  0  0  0  0  0
    6.5786   -1.8483    0.3994 C   0  0  0  0  0  0  0  0  0  0  0  0
    7.5152   -1.2830    0.5777 H   0  0  0  0  0  0  0  0  0  0  0  0
    6.5331   -2.6622    1.1509 H   0  0  0  0  0  0  0  0  0  0  0  0
    6.6536   -2.3093   -0.6063 H   0  0  0  0  0  0  0  0  0  0  0  0
   -3.0493   -1.7732   -0.2211 C   0  0  0  0  0  0  0  0  0  0  0  0
   -2.4493   -0.4941    0.0403 C   0  0  0  0  0  2  0  0  0  0  0  0
   -3.2810    0.6047    0.2537 C   0  0  0  0  0  0  0  0  0  0  0  0
   -2.8036    1.5681    0.4939 H   0  0  0  0  0  0  0  0  0  0  0  0
   -4.6943    0.5090    0.1978 C   0  0  0  0  0  0  0  0  0  0  0  0
   -5.2597   -0.7531   -0.0813 C   0  0  0  0  0  0  0  0  0  0  0  0
   -6.3500   -0.8719   -0.1347 H   0  0  0  0  0  0  0  0  0  0  0  0
   -4.4523   -1.8812   -0.2822 C   0  0  0  0  0  0  0  0  0  0  0  0
   -4.9291   -2.8545   -0.4780 H   0  0  0  0  0  0  0  0  0  0  0  0
   -5.5417    1.7664    0.4469 C   0  0  0  0  0  0  0  0  0  0  0  0
   -5.2311    2.3049    1.8630 C   0  0  0  0  0  0  0  0  0  0  0  0
   -4.1587    2.5559    1.9813 H   0  0  0  0  0  0  0  0  0  0  0  0
   -5.8203    3.2241    2.0617 H   0  0  0  0  0  0  0  0  0  0  0  0
   -5.4906    1.5546    2.6370 H   0  0  0  0  0  0  0  0  0  0  0  0
   -5.1704    2.8383   -0.6042 C   0  0  0  0  0  0  0  0  0  0  0  0
   -4.0978    3.1093   -0.5508 H   0  0  0  0  0  0  0  0  0  0  0  0
   -5.3791    2.4756   -1.6312 H   0  0  0  0  0  0  0  0  0  0  0  0
   -5.7625    3.7617   -0.4370 H   0  0  0  0  0  0  0  0  0  0  0  0
   -7.0507    1.4859    0.3479 C   0  0  0  0  0  0  0  0  0  0  0  0
   -7.3821    0.7398    1.0982 H   0  0  0  0  0  0  0  0  0  0  0  0
   -7.6186    2.4196    0.5342 H   0  0  0  0  0  0  0  0  0  0  0  0
   -7.3376    1.1169   -0.6577 H   0  0  0  0  0  0  0  0  0  0  0  0
  2  1  1  0  0  0  0
  2  9  1  0  0  0  0
  3  2  2  0  0  0  0
  4  3  1  0  0  0  0
  5  6  2  0  0  0  0
  5  3  1  0  0  0  0
  6  8  1  0  0  0  0
  7  6  1  0  0  0  0
  8  1  1  0  0  0  0
  8 31  2  0  0  0  0
  9 10  1  0  0  0  0
 10 11  2  0  0  0  0
 11 12  1  0  0  0  0
 13 11  1  0  0  0  0
 13 18  1  0  0  0  0
 14 13  2  0  0  0  0
 15 14  1  0  0  0  0
 16  9  2  0  0  0  0
 16 14  1  0  0  0  0
 17 16  1  0  0  0  0
 18 23  1  0  0  0  0
 19 22  1  0  0  0  0
 19 20  1  0  0  0  0
 19 18  1  0  0  0  0
 21 19  1  0  0  0  0
 23 25  1  0  0  0  0
 23 24  1  0  0  0  0
 23 26  1  0  0  0  0
 27 18  1  0  0  0  0
 27 28  1  0  0  0  0
 27 29  1  0  0  0  0
 30 27  1  0  0  0  0
 31 32  1  0  0  0  0
 32 33  1  0  0  0  0
 33 34  1  0  0  0  0
 35 33  2  0  0  0  0
 35 40  1  0  0  0  0
 36 35  1  0  0  0  0
 37 36  1  0  0  0  0
 38 31  1  0  0  0  0
 38 36  2  0  0  0  0
 39 38  1  0  0  0  0
 40 41  1  0  0  0  0
 41 42  1  0  0  0  0
 41 43  1  0  0  0  0
 41 44  1  0  0  0  0
 45 46  1  0  0  0  0
 45 48  1  0  0  0  0
 45 40  1  0  0  0  0
 47 45  1  0  0  0  0
 49 40  1  0  0  0  0
 49 51  1  0  0  0  0
 49 50  1  0  0  0  0
 52 49  1  0  0  0  0
M  END
