1,15,32
q = -2.0, confidence = 0.85

 32 34  0  0  1  0  0  0  0  0999 V2000
    2.1482   -0.5570   -0.3750 C   0  0  0  0  0  3  0  0  0  0  0  0
   -4.3900   -2.2787    1.7952 C   0  0  0  0  0  0  0  0  0  0  0  0
   -4.2559   -3.3435    1.5103 H   0  0  0  0  0  0  0  0  0  0  0  0
   -5.4775   -2.1048    1.8991 H   0  0  0  0  0  0  0  0  0  0  0  0
   -3.9322   -2.1427    2.7961 H   0  0  0  0  0  0  0  0  0  0  0  0
    3.2790    0.0205   -0.9641 C   0  0  0  0  0  0  0  0  0  0  0  0
    3.1830    0.8647   -1.6644 H   0  0  0  0  0  0  0  0  0  0  0  0
    5.6330    0.0610   -1.2392 F   0  0  0  0  0  0  0  0  0  0  0  0
    4.5476   -0.4997   -0.6747 C   0  0  0  0  0  0  0  0  0  0  0  0
    4.7343   -1.5902    0.1914 C   0  0  0  0  0  0  0  0  0  0  0  0
    5.7509   -1.9610    0.3819 H   0  0  0  0  0  0  0  0  0  0  0  0
    3.6109   -2.1788    0.7776 C   0  0  0  0  0  0  0  0  0  0  0  0
    3.7502   -3.0409    1.4479 H   0  0  0  0  0  0  0  0  0  0  0  0
    2.3190   -1.6746    0.5051 C   0  0  0  0  0  0  0  0  0  0  0  0
   -0.0608   -1.6255    0.7218 N   0  0  0  0  0  2  0  0  0  0  0  0
    1.0984   -2.2507    1.0821 C   0  0  2  0  0  3  0  0  0  0  0  0
    1.0102   -3.3516    1.9556 C   0  0  0  0  0  0  0  0  0  0  0  0
    1.9211   -3.8767    2.2698 H   0  0  0  0  0  0  0  0  0  0  0  0
   -0.2506   -3.7633    2.3963 C   0  0  0  0  0  0  0  0  0  0  0  0
   -0.3364   -4.6271    3.0725 H   0  0  0  0  0  0  0  0  0  0  0  0
   -1.4152   -3.1031    1.9793 C   0  0  0  0  0  0  0  0  0  0  0  0
   -2.3887   -3.4635    2.3165 H   0  0  0  0  0  0  0  0  0  0  0  0
   -1.3252   -1.9985    1.1021 C   0  0  0  0  0  0  0  0  0  0  0  0
   -2.4065   -1.2012    0.4886 C   0  0  0  0  0  0  0  0  0  0  0  0
   -3.8048   -1.3420    0.7658 C   0  0  0  0  0  0  0  0  0  0  0  0
   -4.7095   -0.5454    0.0423 C   0  0  0  0  0  0  0  0  0  0  0  0
   -5.7900   -0.6152    0.2330 H   0  0  0  0  0  0  0  0  0  0  0  0
   -4.2555    0.3447   -0.9384 C   0  0  0  0  0  0  0  0  0  0  0  0
   -5.1643    1.0885   -1.5998 F   0  0  0  0  0  0  0  0  0  0  0  0
   -2.8978    0.5100   -1.2152 C   0  0  0  0  0  0  0  0  0  0  0  0
   -2.5681    1.2260   -1.9839 H   0  0  0  0  0  0  0  0  0  0  0  0
   -1.9703   -0.2369   -0.4849 C   0  0  0  0  0  3  0  0  0  0  0  0
  1 14  1  0  0  0  0
  2  4  1  0  0  0  0
  2  5  1  0  0  0  0
  3  2  1  0  0  0  0
  6  9  1  0  0  0  0
  6  1  2  0  0  0  0
  7  6  1  0  0  0  0
  8  9  1  0  0  0  0
  9 10  2  0  0  0  0
 10 11  1  0  0  0  0
 10 12  1  0  0  0  0
 12 13  1  0  0  0  0
 14 12  2  0  0  0  0
 15 16  1  0  0  0  0
 15 23  1  0  0  0  0
 16 14  1  1  0  0  0
 16 17  1  0  0  0  0
 17 18  1  0  0  0  0
 17 19  2  0  0  0  0
 19 20  1  0  0  0  0
 21 22  1  0  0  0  0
 21 19  1  0  0  0  0
 23 21  2  0  0  0  0
 24 25  1  0  0  0  0
 24 23  1  0  0  0  0
 25  2  1  0  0  0  0
 26 27  1  0  0  0  0
 26 25  2  0  0  0  0
 28 26  1  0  0  0  0
 29 28  1  0  0  0  0
 30 28  2  0  0  0  0
 30 32  1  0  0  0  0
 31 30  1  0  0  0  0
 32 24  2  0  0  0  0
M  END
