7,13,17
q = -1.0, confidence = 0.0

 28 28  0  0  1  0  0  0  0  0999 V2000
    1.6549   -0.8287   -0.7237 S   0  0  0  0  0  0  0  0  0  0  0  0
    3.0490    0.9635    0.7277 F   0  0  0  0  0  0  0  0  0  0  0  0
    3.3665   -1.1149    1.3137 F   0  0  0  0  0  0  0  0  0  0  0  0
    4.2743   -0.3425   -0.5170 F   0  0  0  0  0  0  0  0  0  0  0  0
    1.5158    0.2300   -1.7535 O   0  0  0  0  0  0  0  0  0  0  0  0
    2.0044   -2.2158   -1.1254 O   0  0  0  0  0  0  0  0  0  0  0  0
    0.4542   -0.7590    0.3737 N   0  0  0  0  0  2  0  0  0  0  0  0
    3.1838   -0.2989    0.2623 C   0  0  0  0  0  0  0  0  0  0  0  0
    0.1994   -2.0044    1.1155 C   0  0  0  0  0  0  0  0  0  0  0  0
   -0.6624   -3.0401    0.3756 C   0  0  0  0  0  0  0  0  0  0  0  0
   -2.1475   -2.6632    0.2078 C   0  0  0  0  0  0  0  0  0  0  0  0
   -2.4019   -1.3085   -0.4076 C   0  0  1  0  0  3  0  0  0  0  0  0
   -3.2214   -0.3499    0.2594 C   0  0  0  0  0  3  0  0  0  0  0  0
   -3.3582    1.0040   -0.2137 C   0  0  0  0  0  0  0  0  0  0  0  0
   -2.6374    1.4029   -1.3705 C   0  0  0  0  0  0  0  0  0  0  0  0
   -1.8268    0.4568   -2.0904 C   0  0  0  0  0  3  0  0  0  0  0  0
   -1.7015   -0.8719   -1.6016 C   0  0  0  0  0  3  0  0  0  0  0  0
    1.1684   -2.4788    1.3726 H   0  0  0  0  0  0  0  0  0  0  0  0
   -0.2740   -1.6942    2.0713 H   0  0  0  0  0  0  0  0  0  0  0  0
   -0.1842   -3.2477   -0.6033 H   0  0  0  0  0  0  0  0  0  0  0  0
   -0.6228   -3.9956    0.9404 H   0  0  0  0  0  0  0  0  0  0  0  0
   -2.6528   -3.4373   -0.4108 H   0  0  0  0  0  0  0  0  0  0  0  0
   -2.6458   -2.6817    1.1989 H   0  0  0  0  0  0  0  0  0  0  0  0
   -3.6580   -0.6165    1.2332 H   0  0  0  0  0  0  0  0  0  0  0  0
   -3.9266    1.7372    0.3743 H   0  0  0  0  0  0  0  0  0  0  0  0
   -2.6383    2.4607   -1.6744 H   0  0  0  0  0  0  0  0  0  0  0  0
   -1.2010    0.7817   -2.9330 H   0  0  0  0  0  0  0  0  0  0  0  0
   -0.9775   -1.5447   -2.0842 H   0  0  0  0  0  0  0  0  0  0  0  0
  1  8  1  0  0  0  0
  1  7  1  0  0  0  0
  4  8  1  0  0  0  0
  5  1  2  0  0  0  0
  6  1  2  0  0  0  0
  7  9  1  0  0  0  0
  8  2  1  0  0  0  0
  8  3  1  0  0  0  0
  9 18  1  0  0  0  0
  9 19  1  0  0  0  0
 10 21  1  0  0  0  0
 10  9  1  0  0  0  0
 11 10  1  0  0  0  0
 11 23  1  0  0  0  0
 12 11  1  1  0  0  0
 12 13  1  0  0  0  0
 13 24  1  0  0  0  0
 14 13  1  0  0  0  0
 14 25  1  0  0  0  0
 15 14  2  0  0  0  0
 16 17  1  0  0  0  0
 16 15  1  0  0  0  0
 17 12  1  0  0  0  0
 20 10  1  0  0  0  0
 22 11  1  0  0  0  0
 26 15  1  0  0  0  0
 27 16  1  0  0  0  0
 28 17  1  0  0  0  0
M  END
