1,6,19
q = 0.0, confidence = 0.998

 49 51  0  0  1  0  0  0  0  0999 V2000
    0.5982    1.9498    0.1242 N   0  0  0  0  0  2  0  0  0  0  0  0
   -3.1178    0.8339   -0.1428 N   0  0  0  0  0  0  0  0  0  0  0  0
   -1.6341    2.3711    0.2670 N   0  0  0  0  0  0  0  0  0  0  0  0
    3.0202   -0.9801   -0.7033 N   0  0  0  0  0  0  0  0  0  0  0  0
    2.6910    1.0928   -0.1331 N   0  0  0  0  0  0  0  0  0  0  0  0
   -1.7826    1.0266   -0.1005 C   0  0  0  0  0  2  0  0  0  0  0  0
   -3.8032    2.0021    0.1938 C   0  0  0  0  0  0  0  0  0  0  0  0
   -4.8967    2.0445    0.2164 H   0  0  0  0  0  0  0  0  0  0  0  0
   -2.8759    2.9760    0.4481 C   0  0  0  0  0  0  0  0  0  0  0  0
   -3.0009    4.0252    0.7290 H   0  0  0  0  0  0  0  0  0  0  0  0
   -0.3397    2.8937    0.3901 C   0  0  1  0  0  3  0  0  0  0  0  0
    0.0347    4.1959    0.7360 C   0  0  0  0  0  0  0  0  0  0  0  0
   -0.7176    4.9650    0.9524 H   0  0  0  0  0  0  0  0  0  0  0  0
    1.4095    4.4844    0.7963 C   0  0  0  0  0  0  0  0  0  0  0  0
    1.7344    5.4995    1.0655 H   0  0  0  0  0  0  0  0  0  0  0  0
    2.3777    3.5033    0.5196 C   0  0  0  0  0  0  0  0  0  0  0  0
    3.4496    3.7332    0.5677 H   0  0  0  0  0  0  0  0  0  0  0  0
    1.9258    2.2239    0.1805 C   0  0  0  0  0  0  0  0  0  0  0  0
    2.0277   -0.1019   -0.4483 C   0  0  0  0  0  2  0  0  0  0  0  0
    4.2719   -0.3812   -0.5512 C   0  0  0  0  0  0  0  0  0  0  0  0
    5.2021   -0.9342   -0.7151 H   0  0  0  0  0  0  0  0  0  0  0  0
    4.0725    0.9251   -0.1959 C   0  0  0  0  0  0  0  0  0  0  0  0
    4.7874    1.7280    0.0034 H   0  0  0  0  0  0  0  0  0  0  0  0
   -3.7634   -0.4594   -0.4150 C   0  0  0  0  0  0  0  0  0  0  0  0
   -3.0769   -1.0222   -1.0752 H   0  0  0  0  0  0  0  0  0  0  0  0
   -4.6988   -0.2484   -0.9717 H   0  0  0  0  0  0  0  0  0  0  0  0
   -4.0452   -1.2385    0.8733 C   0  0  0  0  0  0  0  0  0  0  0  0
   -3.0731   -1.4465    1.3707 H   0  0  0  0  0  0  0  0  0  0  0  0
   -4.6311   -0.5948    1.5648 H   0  0  0  0  0  0  0  0  0  0  0  0
   -4.8005   -2.5526    0.6298 C   0  0  0  0  0  0  0  0  0  0  0  0
   -5.7797   -2.3285    0.1509 H   0  0  0  0  0  0  0  0  0  0  0  0
   -5.0486   -2.9850    1.6218 H   0  0  0  0  0  0  0  0  0  0  0  0
   -4.0376   -3.5879   -0.2001 C   0  0  0  0  0  0  0  0  0  0  0  0
   -4.6055   -4.5368   -0.2641 H   0  0  0  0  0  0  0  0  0  0  0  0
   -3.0478   -3.8127    0.2469 H   0  0  0  0  0  0  0  0  0  0  0  0
   -3.8549   -3.2471   -1.2395 H   0  0  0  0  0  0  0  0  0  0  0  0
    2.8182   -2.4054   -1.0140 C   0  0  0  0  0  0  0  0  0  0  0  0
    3.4741   -2.6484   -1.8734 H   0  0  0  0  0  0  0  0  0  0  0  0
    1.7628   -2.5064   -1.3340 H   0  0  0  0  0  0  0  0  0  0  0  0
    3.1132   -3.3108    0.1853 C   0  0  0  0  0  0  0  0  0  0  0  0
    4.1803   -3.2062    0.4855 H   0  0  0  0  0  0  0  0  0  0  0  0
    3.0060   -4.3567   -0.1746 H   0  0  0  0  0  0  0  0  0  0  0  0
    2.1975   -3.0817    1.3918 C   0  0  0  0  0  0  0  0  0  0  0  0
    1.1408   -3.1774    1.0626 H   0  0  0  0  0  0  0  0  0  0  0  0
    2.3046   -2.0317    1.7457 H   0  0  0  0  0  0  0  0  0  0  0  0
    2.4881   -4.0409    2.5459 C   0  0  0  0  0  0  0  0  0  0  0  0
    1.8157   -3.8536    3.4061 H   0  0  0  0  0  0  0  0  0  0  0  0
    3.5319   -3.9385    2.9089 H   0  0  0  0  0  0  0  0  0  0  0  0
    2.3477   -5.0973    2.2374 H   0  0  0  0  0  0  0  0  0  0  0  0
  1 18  1  0  0  0  0
  1 11  1  0  0  0  0
  2  6  1  0  0  0  0
  2  7  1  0  0  0  0
  3  9  1  0  0  0  0
  4 20  1  0  0  0  0
  4 19  1  0  0  0  0
  5 18  1  0  0  0  0
  6  3  1  0  0  0  0
  7  8  1  0  0  0  0
  7  9  2  0  0  0  0
  9 10  1  0  0  0  0
 11  3  1  1  0  0  0
 11 12  1  0  0  0  0
 12 14  2  0  0  0  0
 12 13  1  0  0  0  0
 14 15  1  0  0  0  0
 16 17  1  0  0  0  0
 16 14  1  0  0  0  0
 18 16  2  0  0  0  0
 19  5  1  0  0  0  0
 20 22  2  0  0  0  0
 21 20  1  0  0  0  0
 22  5  1  0  0  0  0
 22 23  1  0  0  0  0
 24  2  1  0  0  0  0
 24 27  1  0  0  0  0
 25 24  1  0  0  0  0
 26 24  1  0  0  0  0
 27 28  1  0  0  0  0
 27 29  1  0  0  0  0
 30 27  1  0  0  0  0
 30 32  1  0  0  0  0
 31 30  1  0  0  0  0
 33 35  1  0  0  0  0
 33 30  1  0  0  0  0
 34 33  1  0  0  0  0
 36 33  1  0  0  0  0
 37  4  1  0  0  0  0
 37 40  1  0  0  0  0
 38 37  1  0  0  0  0
 39 37  1  0  0  0  0
 40 41  1  0  0  0  0
 40 43  1  0  0  0  0
 42 40  1  0  0  0  0
 43 45  1  0  0  0  0
 43 46  1  0  0  0  0
 44 43  1  0  0  0  0
 46 48  1  0  0  0  0
 46 47  1  0  0  0  0
 49 46  1  0  0  0  0
M  END
