3,4,5
q = -2.0, confidence = 0.822

 44 44  0  0  1  0  0  0  0  0999 V2000
    1.6822   -0.0330    1.0985 P   0  0  1  0  0  0  0  0  0  0  0  0
   -0.7825    0.6167    1.9059 P   0  0  0  0  0  2  0  0  0  0  0  0
    1.8659   -0.3157   -0.6257 N   0  0  0  0  0  2  0  0  0  0  0  0
    0.5558    1.4277    1.0852 C   0  0  1  0  0  3  0  0  0  0  0  0
    0.0591   -0.8984    1.4181 C   0  0  2  0  0  3  0  0  0  0  0  0
    0.9206    2.9024    1.0554 C   0  0  0  0  0  0  0  0  0  0  0  0
    2.0788    3.1614    0.0742 C   0  0  0  0  0  0  0  0  0  0  0  0
    2.3355    4.2405    0.0638 H   0  0  0  0  0  0  0  0  0  0  0  0
    1.8041    2.8490   -0.9511 H   0  0  0  0  0  0  0  0  0  0  0  0
    2.9878    2.6053    0.3817 H   0  0  0  0  0  0  0  0  0  0  0  0
   -0.3044    3.7516    0.6641 C   0  0  0  0  0  0  0  0  0  0  0  0
   -0.0630    4.8317    0.7371 H   0  0  0  0  0  0  0  0  0  0  0  0
   -1.1608    3.5521    1.3421 H   0  0  0  0  0  0  0  0  0  0  0  0
   -0.6078    3.5315   -0.3778 H   0  0  0  0  0  0  0  0  0  0  0  0
    1.3765    3.2971    2.4823 C   0  0  0  0  0  0  0  0  0  0  0  0
    1.6878    4.3624    2.5094 H   0  0  0  0  0  0  0  0  0  0  0  0
    2.2374    2.6777    2.8071 H   0  0  0  0  0  0  0  0  0  0  0  0
    0.5560    3.1542    3.2148 H   0  0  0  0  0  0  0  0  0  0  0  0
   -0.1612   -2.2814    2.0218 C   0  0  0  0  0  0  0  0  0  0  0  0
   -1.6050   -2.7394    1.7350 C   0  0  0  0  0  0  0  0  0  0  0  0
   -2.3436   -1.9902    2.0892 H   0  0  0  0  0  0  0  0  0  0  0  0
   -1.8168   -3.6978    2.2522 H   0  0  0  0  0  0  0  0  0  0  0  0
   -1.7507   -2.8876    0.6487 H   0  0  0  0  0  0  0  0  0  0  0  0
    0.0558   -2.1954    3.5506 C   0  0  0  0  0  0  0  0  0  0  0  0
   -0.6708   -1.4986    4.0173 H   0  0  0  0  0  0  0  0  0  0  0  0
    1.0774   -1.8296    3.7818 H   0  0  0  0  0  0  0  0  0  0  0  0
   -0.0689   -3.1919    4.0237 H   0  0  0  0  0  0  0  0  0  0  0  0
    0.8328   -3.2982    1.4339 C   0  0  0  0  0  0  0  0  0  0  0  0
    0.7095   -3.3827    0.3381 H   0  0  0  0  0  0  0  0  0  0  0  0
    0.6715   -4.2974    1.8880 H   0  0  0  0  0  0  0  0  0  0  0  0
    1.8792   -2.9978    1.6481 H   0  0  0  0  0  0  0  0  0  0  0  0
    3.0923   -0.7347   -1.3219 C   0  0  0  0  0  0  0  0  0  0  0  0
    3.4420   -2.1821   -0.9329 C   0  0  0  0  0  0  0  0  0  0  0  0
    3.6647   -2.2570    0.1517 H   0  0  0  0  0  0  0  0  0  0  0  0
    4.3362   -2.5300   -1.4889 H   0  0  0  0  0  0  0  0  0  0  0  0
    2.5949   -2.8551   -1.1657 H   0  0  0  0  0  0  0  0  0  0  0  0
    4.2509    0.2112   -0.9594 C   0  0  0  0  0  0  0  0  0  0  0  0
    4.4451    0.2002    0.1337 H   0  0  0  0  0  0  0  0  0  0  0  0
    4.0182    1.2498   -1.2639 H   0  0  0  0  0  0  0  0  0  0  0  0
    5.1814   -0.1040   -1.4730 H   0  0  0  0  0  0  0  0  0  0  0  0
    2.7976   -0.6443   -2.8307 C   0  0  0  0  0  0  0  0  0  0  0  0
    1.9797   -1.3378   -3.1048 H   0  0  0  0  0  0  0  0  0  0  0  0
    3.7032   -0.9103   -3.4119 H   0  0  0  0  0  0  0  0  0  0  0  0
    2.4816    0.3819   -3.1009 H   0  0  0  0  0  0  0  0  0  0  0  0
  1  3  1  6  0  0  0
  1  5  1  0  0  0  0
  4  6  1  1  0  0  0
  4  1  1  0  0  0  0
  4  2  1  0  0  0  0
  5  2  1  0  0  0  0
  5 19  1  1  0  0  0
  6 15  1  0  0  0  0
  7 10  1  0  0  0  0
  7  6  1  0  0  0  0
  8  7  1  0  0  0  0
  9  7  1  0  0  0  0
 11 12  1  0  0  0  0
 11  6  1  0  0  0  0
 11 13  1  0  0  0  0
 14 11  1  0  0  0  0
 15 16  1  0  0  0  0
 15 17  1  0  0  0  0
 15 18  1  0  0  0  0
 19 24  1  0  0  0  0
 20 19  1  0  0  0  0
 20 21  1  0  0  0  0
 20 22  1  0  0  0  0
 23 20  1  0  0  0  0
 24 26  1  0  0  0  0
 24 25  1  0  0  0  0
 24 27  1  0  0  0  0
 28 31  1  0  0  0  0
 28 30  1  0  0  0  0
 28 19  1  0  0  0  0
 29 28  1  0  0  0  0
 32 37  1  0  0  0  0
 32 33  1  0  0  0  0
 32  3  1  0  0  0  0
 33 34  1  0  0  0  0
 35 33  1  0  0  0  0
 36 33  1  0  0  0  0
 37 38  1  0  0  0  0
 39 37  1  0  0  0  0
 40 37  1  0  0  0  0
 41 32  1  0  0  0  0
 42 41  1  0  0  0  0
 43 41  1  0  0  0  0
 44 41  1  0  0  0  0
M  END
