1,9,27
q = 0.0, confidence = 0.978

 39 41  0  0  1  0  0  0  0  0999 V2000
   -0.0000   -1.7070   -0.0000 N   0  0  0  0  0  2  0  0  0  0  0  0
   -2.2055   -1.5071   -0.3336 N   0  0  0  0  0  0  0  0  0  0  0  0
   -3.0299    0.5030   -0.4909 N   0  0  0  0  0  0  0  0  0  0  0  0
   -0.0000   -4.5066    0.0000 C   0  0  0  0  0  0  0  0  0  0  0  0
   -0.0001   -5.6053    0.0000 H   0  0  0  0  0  0  0  0  0  0  0  0
   -1.2088   -3.8042   -0.1805 C   0  0  0  0  0  0  0  0  0  0  0  0
   -2.1602   -4.3343   -0.3234 H   0  0  0  0  0  0  0  0  0  0  0  0
   -1.1634   -2.4091   -0.1742 C   0  0  1  0  0  3  0  0  0  0  0  0
   -1.8376   -0.1538   -0.2970 C   0  0  0  0  0  2  0  0  0  0  0  0
   -3.5782   -1.6615   -0.5291 C   0  0  0  0  0  0  0  0  0  0  0  0
   -4.0687   -2.6364   -0.5912 H   0  0  0  0  0  0  0  0  0  0  0  0
   -4.0877   -0.3937   -0.6188 C   0  0  0  0  0  0  0  0  0  0  0  0
   -5.1186   -0.0551   -0.7601 H   0  0  0  0  0  0  0  0  0  0  0  0
   -3.1659    1.9576   -0.4880 C   0  0  0  0  0  0  0  0  0  0  0  0
   -3.8231    2.2574   -1.3305 H   0  0  0  0  0  0  0  0  0  0  0  0
   -2.1504    2.3558   -0.6880 H   0  0  0  0  0  0  0  0  0  0  0  0
   -3.6959    2.4847    0.8187 C   0  0  0  0  0  0  0  0  0  0  0  0
   -3.0719    2.2682    1.7033 H   0  0  0  0  0  0  0  0  0  0  0  0
   -4.8349    3.1865    0.9386 C   0  0  0  0  0  0  0  0  0  0  0  0
   -5.4627    3.4198    0.0612 H   0  0  0  0  0  0  0  0  0  0  0  0
   -5.1771    3.5670    1.9134 H   0  0  0  0  0  0  0  0  0  0  0  0
    2.2055   -1.5071    0.3336 N   0  0  0  0  0  0  0  0  0  0  0  0
    3.0299    0.5030    0.4908 N   0  0  0  0  0  0  0  0  0  0  0  0
    1.2088   -3.8042    0.1805 C   0  0  0  0  0  0  0  0  0  0  0  0
    2.1601   -4.3343    0.3234 H   0  0  0  0  0  0  0  0  0  0  0  0
    1.1634   -2.4091    0.1742 C   0  0  0  0  0  0  0  0  0  0  0  0
    1.8376   -0.1538    0.2970 C   0  0  0  0  0  2  0  0  0  0  0  0
    3.5782   -1.6616    0.5291 C   0  0  0  0  0  0  0  0  0  0  0  0
    4.0687   -2.6365    0.5912 H   0  0  0  0  0  0  0  0  0  0  0  0
    4.0877   -0.3938    0.6187 C   0  0  0  0  0  0  0  0  0  0  0  0
    5.1186   -0.0551    0.7600 H   0  0  0  0  0  0  0  0  0  0  0  0
    3.1659    1.9576    0.4879 C   0  0  0  0  0  0  0  0  0  0  0  0
    3.8231    2.2574    1.3305 H   0  0  0  0  0  0  0  0  0  0  0  0
    2.1504    2.3558    0.6878 H   0  0  0  0  0  0  0  0  0  0  0  0
    3.6960    2.4846   -0.8187 C   0  0  0  0  0  0  0  0  0  0  0  0
    3.0720    2.2682   -1.7033 H   0  0  0  0  0  0  0  0  0  0  0  0
    4.8350    3.1864   -0.9385 C   0  0  0  0  0  0  0  0  0  0  0  0
    5.4627    3.4197   -0.0612 H   0  0  0  0  0  0  0  0  0  0  0  0
    5.1773    3.5669   -1.9133 H   0  0  0  0  0  0  0  0  0  0  0  0
  1 26  1  0  0  0  0
  2  9  1  0  0  0  0
  3 14  1  0  0  0  0
  3  9  1  0  0  0  0
  4  5  1  0  0  0  0
  4 24  1  0  0  0  0
  6  8  1  0  0  0  0
  6  4  2  0  0  0  0
  7  6  1  0  0  0  0
  8  2  1  6  0  0  0
  8  1  1  0  0  0  0
 10  2  1  0  0  0  0
 11 10  1  0  0  0  0
 12 10  2  0  0  0  0
 12  3  1  0  0  0  0
 13 12  1  0  0  0  0
 14 17  1  0  0  0  0
 15 14  1  0  0  0  0
 16 14  1  0  0  0  0
 17 19  2  0  0  0  0
 17 18  1  0  0  0  0
 19 21  1  0  0  0  0
 20 19  1  0  0  0  0
 22 28  1  0  0  0  0
 23 30  1  0  0  0  0
 24 25  1  0  0  0  0
 26 24  2  0  0  0  0
 26 22  1  0  0  0  0
 27 22  1  0  0  0  0
 27 23  1  0  0  0  0
 28 29  1  0  0  0  0
 28 30  2  0  0  0  0
 30 31  1  0  0  0  0
 32 23  1  0  0  0  0
 32 34  1  0  0  0  0
 32 33  1  0  0  0  0
 35 32  1  0  0  0  0
 36 35  1  0  0  0  0
 37 35  2  0  0  0  0
 37 38  1  0  0  0  0
 39 37  1  0  0  0  0
M  END
