3,4,14
q = -1.0, confidence = 0.458

 37 38  0  0  1  0  0  0  0  0999 V2000
   -2.3267    1.0589    1.6639 Si  0  0  0  0  0  0  0  0  0  0  0  0
   -2.3273    1.0582   -1.6639 Si  0  0  0  0  0  0  0  0  0  0  0  0
   -1.8140    0.8292   -0.0001 N   0  0  0  0  0  2  0  0  0  0  0  0
   -2.0209   -1.8319   -1.7701 C   0  0  0  0  0  3  0  0  0  0  0  0
   -3.0548   -2.0545   -1.4724 H   0  0  0  0  0  0  0  0  0  0  0  0
   -1.5484   -0.5628    2.2642 C   0  0  2  0  0  3  0  0  0  0  0  0
   -0.1424   -0.7268    2.4864 C   0  0  0  0  0  3  0  0  0  0  0  0
    0.5469    0.0619    2.8145 H   0  0  0  0  0  0  0  0  0  0  0  0
   -1.5487   -0.5634   -2.2640 C   0  0  2  0  0  3  0  0  0  0  0  0
    0.2388   -2.0597   -2.1486 C   0  0  0  0  0  0  0  0  0  0  0  0
    1.2505   -2.4785   -2.2003 H   0  0  0  0  0  0  0  0  0  0  0  0
   -0.1427   -0.7269   -2.4863 C   0  0  0  0  0  3  0  0  0  0  0  0
    0.5463    0.0621   -2.8145 H   0  0  0  0  0  0  0  0  0  0  0  0
   -2.0211   -1.8311    1.7705 C   0  0  0  0  0  3  0  0  0  0  0  0
   -3.0552   -2.0534    1.4729 H   0  0  0  0  0  0  0  0  0  0  0  0
   -1.5467    2.5676   -2.4676 C   0  0  0  0  0  0  0  0  0  0  0  0
   -1.9743    3.4962   -2.0366 H   0  0  0  0  0  0  0  0  0  0  0  0
   -1.7206    2.5842   -3.5629 H   0  0  0  0  0  0  0  0  0  0  0  0
   -0.4564    2.5841   -2.2729 H   0  0  0  0  0  0  0  0  0  0  0  0
   -1.5453    2.5683    2.4669 C   0  0  0  0  0  0  0  0  0  0  0  0
   -0.4551    2.5844    2.2718 H   0  0  0  0  0  0  0  0  0  0  0  0
   -1.7187    2.5852    3.5622 H   0  0  0  0  0  0  0  0  0  0  0  0
   -1.9728    3.4969    2.0358 H   0  0  0  0  0  0  0  0  0  0  0  0
    0.2385   -2.0599    2.1488 C   0  0  0  0  0  0  0  0  0  0  0  0
    1.2500   -2.4790    2.2004 H   0  0  0  0  0  0  0  0  0  0  0  0
   -0.9255   -2.7467   -1.7082 C   0  0  0  0  0  0  0  0  0  0  0  0
   -0.9723   -3.7982   -1.3967 H   0  0  0  0  0  0  0  0  0  0  0  0
   -4.2018    1.0596   -1.8646 C   0  0  0  0  0  0  0  0  0  0  0  0
   -4.6580    0.1580   -1.4090 H   0  0  0  0  0  0  0  0  0  0  0  0
   -4.4797    1.0840   -2.9385 H   0  0  0  0  0  0  0  0  0  0  0  0
   -4.6503    1.9489   -1.3759 H   0  0  0  0  0  0  0  0  0  0  0  0
   -4.2011    1.0611    1.8653 C   0  0  0  0  0  0  0  0  0  0  0  0
   -4.6494    1.9506    1.3769 H   0  0  0  0  0  0  0  0  0  0  0  0
   -4.4785    1.0853    2.9393 H   0  0  0  0  0  0  0  0  0  0  0  0
   -4.6579    0.1597    1.4097 H   0  0  0  0  0  0  0  0  0  0  0  0
   -0.9262   -2.7464    1.7086 C   0  0  0  0  0  0  0  0  0  0  0  0
   -0.9735   -3.7979    1.3971 H   0  0  0  0  0  0  0  0  0  0  0  0
  1 32  1  0  0  0  0
  1 20  1  0  0  0  0
  2  3  1  0  0  0  0
  3  1  1  0  0  0  0
  4 26  1  0  0  0  0
  4  5  1  0  0  0  0
  6  1  1  6  0  0  0
  6  7  1  0  0  0  0
  7  8  1  0  0  0  0
  9  4  1  0  0  0  0
  9  2  1  1  0  0  0
 10 26  2  0  0  0  0
 11 10  1  0  0  0  0
 12  9  1  0  0  0  0
 12 10  1  0  0  0  0
 13 12  1  0  0  0  0
 14  6  1  0  0  0  0
 15 14  1  0  0  0  0
 16 19  1  0  0  0  0
 16 17  1  0  0  0  0
 16  2  1  0  0  0  0
 18 16  1  0  0  0  0
 20 22  1  0  0  0  0
 21 20  1  0  0  0  0
 23 20  1  0  0  0  0
 24 25  1  0  0  0  0
 24  7  1  0  0  0  0
 26 27  1  0  0  0  0
 28  2  1  0  0  0  0
 28 29  1  0  0  0  0
 28 31  1  0  0  0  0
 30 28  1  0  0  0  0
 32 34  1  0  0  0  0
 33 32  1  0  0  0  0
 35 32  1  0  0  0  0
 36 14  1  0  0  0  0
 36 24  2  0  0  0  0
 37 36  1  0  0  0  0
M  END
