8,17,33
q = -2.0, confidence = 0.572

 39 42  0  0  0  0  0  0  0  0999 V2000
   -6.9123   -1.0210   -0.5295 C   0  0  0  0  0  0  0  0  0  0  0  0
   -6.3831   -1.7914   -1.1102 H   0  0  0  0  0  0  0  0  0  0  0  0
    0.6627   -3.0777   -0.1609 C   0  0  0  0  0  0  0  0  0  0  0  0
    1.7508   -2.9130   -0.1869 H   0  0  0  0  0  0  0  0  0  0  0  0
   -1.6194   -2.2841   -0.0806 C   0  0  0  0  0  0  0  0  0  0  0  0
   -8.3116   -1.0419   -0.4620 C   0  0  0  0  0  0  0  0  0  0  0  0
   -8.8702   -1.8395   -0.9751 H   0  0  0  0  0  0  0  0  0  0  0  0
   -1.9208    0.0694   -0.0987 N   0  0  0  0  0  2  0  0  0  0  0  0
   -1.1760   -4.6803   -0.1619 C   0  0  0  0  0  0  0  0  0  0  0  0
   -1.5401   -5.7185   -0.1852 H   0  0  0  0  0  0  0  0  0  0  0  0
   -6.1711    0.0000    0.1076 C   0  0  0  0  0  0  0  0  0  0  0  0
   -2.5445   -1.1392   -0.0530 C   0  0  0  0  0  0  0  0  0  0  0  0
   -8.2768    0.9737    0.8885 C   0  0  0  0  0  0  0  0  0  0  0  0
   -8.8069    1.7539    1.4557 H   0  0  0  0  0  0  0  0  0  0  0  0
   -2.0835   -3.6163   -0.1084 C   0  0  0  0  0  0  0  0  0  0  0  0
   -3.1641   -3.8281   -0.0961 H   0  0  0  0  0  0  0  0  0  0  0  0
   -0.2834    2.1549   -0.2179 C   0  0  0  0  0  2  0  0  0  0  0  0
   -3.9889    1.2481   -0.0180 C   0  0  0  0  0  0  0  0  0  0  0  0
   -4.5386    2.1978   -0.0375 H   0  0  0  0  0  0  0  0  0  0  0  0
    0.2010   -4.4046   -0.1916 C   0  0  0  0  0  0  0  0  0  0  0  0
    0.9260   -5.2329   -0.2393 H   0  0  0  0  0  0  0  0  0  0  0  0
   -8.9999   -0.0454    0.2484 C   0  0  0  0  0  0  0  0  0  0  0  0
  -10.0989   -0.0630    0.3030 H   0  0  0  0  0  0  0  0  0  0  0  0
   -3.9479   -1.1767    0.0136 C   0  0  0  0  0  0  0  0  0  0  0  0
   -4.4618   -2.1437    0.0858 H   0  0  0  0  0  0  0  0  0  0  0  0
   -4.6891    0.0242    0.0335 C   0  0  0  0  0  0  0  0  0  0  0  0
   -2.5849    1.2568   -0.0851 C   0  0  0  0  0  0  0  0  0  0  0  0
    0.0455    4.5873   -0.4793 C   0  0  0  0  0  0  0  0  0  0  0  0
    0.7423    5.4306   -0.6127 H   0  0  0  0  0  0  0  0  0  0  0  0
    0.5516    3.2781   -0.3927 C   0  0  0  0  0  0  0  0  0  0  0  0
    1.6380    3.1431   -0.4678 H   0  0  0  0  0  0  0  0  0  0  0  0
   -1.6974    2.4266   -0.1740 C   0  0  0  0  0  0  0  0  0  0  0  0
   -0.2142   -1.9722   -0.0988 C   0  0  0  0  0  3  0  0  0  0  0  0
   -2.2057    3.7402   -0.2517 C   0  0  0  0  0  0  0  0  0  0  0  0
   -3.2916    3.9194   -0.2091 H   0  0  0  0  0  0  0  0  0  0  0  0
   -1.3356    4.8268   -0.3973 C   0  0  0  0  0  0  0  0  0  0  0  0
   -1.7328    5.8513   -0.4586 H   0  0  0  0  0  0  0  0  0  0  0  0
   -6.8777    0.9978    0.8169 C   0  0  0  0  0  0  0  0  0  0  0  0
   -6.3184    1.7856    1.3433 H   0  0  0  0  0  0  0  0  0  0  0  0
  1  6  2  0  0  0  0
  1 11  1  0  0  0  0
  2  1  1  0  0  0  0
  3 33  1  0  0  0  0
  4  3  1  0  0  0  0
  5 12  1  0  0  0  0
  6 22  1  0  0  0  0
  7  6  1  0  0  0  0
  8 27  1  0  0  0  0
  8 12  1  0  0  0  0
  9 15  2  0  0  0  0
 10  9  1  0  0  0  0
 11 38  2  0  0  0  0
 12 24  2  0  0  0  0
 13 14  1  0  0  0  0
 15 16  1  0  0  0  0
 15  5  1  0  0  0  0
 17 32  1  0  0  0  0
 18 26  2  0  0  0  0
 19 18  1  0  0  0  0
 20  9  1  0  0  0  0
 20  3  2  0  0  0  0
 21 20  1  0  0  0  0
 22 23  1  0  0  0  0
 22 13  2  0  0  0  0
 24 26  1  0  0  0  0
 24 25  1  0  0  0  0
 26 11  1  0  0  0  0
 27 18  1  0  0  0  0
 28 36  1  0  0  0  0
 28 30  2  0  0  0  0
 29 28  1  0  0  0  0
 30 17  1  0  0  0  0
 31 30  1  0  0  0  0
 32 27  2  0  0  0  0
 33  5  2  0  0  0  0
 34 35  1  0  0  0  0
 34 32  1  0  0  0  0
 36 34  2  0  0  0  0
 37 36  1  0  0  0  0
 38 13  1  0  0  0  0
 38 39  1  0  0  0  0
M  END
