7,11
q = -2.0, confidence = 0.936

 35 35  0  0  1  0  0  0  0  0999 V2000
   -1.8002    1.7757   -1.6880 S   0  0  0  0  0  0  0  0  0  0  0  0
   -2.9185    4.1208   -0.9483 F   0  0  0  0  0  0  0  0  0  0  0  0
   -2.2148    2.9061    0.7242 F   0  0  0  0  0  0  0  0  0  0  0  0
   -4.0520    2.3594   -0.3314 F   0  0  0  0  0  0  0  0  0  0  0  0
   -0.4242    2.3176   -1.4633 O   0  0  0  0  0  0  0  0  0  0  0  0
   -2.4935    1.9733   -2.9740 O   0  0  0  0  0  0  0  0  0  0  0  0
   -1.8851    0.2710   -1.1303 N   0  0  0  0  0  2  0  0  0  0  0  0
   -2.8805   -1.4295    0.8453 C   0  0  1  0  0  3  0  0  0  0  0  0
   -1.9629   -2.5492    0.7068 C   0  0  0  0  0  0  0  0  0  0  0  0
   -0.9617   -2.4276    1.7733 C   0  0  0  0  0  0  0  0  0  0  0  0
   -1.2969   -1.2691    2.5706 C   0  0  1  0  0  3  0  0  0  0  0  0
   -2.5093   -0.6487    2.0165 C   0  0  2  0  0  3  0  0  0  0  0  0
   -2.1055   -3.7254   -0.2033 C   0  0  0  0  0  0  0  0  0  0  0  0
    0.1711   -3.3816    1.9714 C   0  0  0  0  0  0  0  0  0  0  0  0
   -0.5812   -0.8009    3.7995 C   0  0  0  0  0  0  0  0  0  0  0  0
   -3.2602    0.4978    2.6191 C   0  0  0  0  0  0  0  0  0  0  0  0
   -3.8457   -0.9821   -0.2336 C   0  0  0  0  0  0  0  0  0  0  0  0
   -3.0634   -0.5455   -1.4993 C   0  0  0  0  0  0  0  0  0  0  0  0
   -2.8090    2.8690   -0.4971 C   0  0  0  0  0  0  0  0  0  0  0  0
   -2.7522   -3.4990   -1.0691 H   0  0  0  0  0  0  0  0  0  0  0  0
   -2.5563   -4.5726    0.3588 H   0  0  0  0  0  0  0  0  0  0  0  0
   -1.1318   -4.0430   -0.6154 H   0  0  0  0  0  0  0  0  0  0  0  0
    0.6987   -3.5466    1.0106 H   0  0  0  0  0  0  0  0  0  0  0  0
   -0.1927   -4.3647    2.3379 H   0  0  0  0  0  0  0  0  0  0  0  0
    0.9088   -2.9967    2.7009 H   0  0  0  0  0  0  0  0  0  0  0  0
    0.4739   -1.1347    3.8104 H   0  0  0  0  0  0  0  0  0  0  0  0
   -1.0710   -1.2000    4.7133 H   0  0  0  0  0  0  0  0  0  0  0  0
   -0.5924    0.3039    3.8866 H   0  0  0  0  0  0  0  0  0  0  0  0
   -2.5796    1.2253    3.1022 H   0  0  0  0  0  0  0  0  0  0  0  0
   -3.9669    0.1373    3.3977 H   0  0  0  0  0  0  0  0  0  0  0  0
   -3.8412    1.0513    1.8599 H   0  0  0  0  0  0  0  0  0  0  0  0
   -4.5448   -1.8029   -0.4968 H   0  0  0  0  0  0  0  0  0  0  0  0
   -4.4557   -0.1403    0.1456 H   0  0  0  0  0  0  0  0  0  0  0  0
   -3.7152    0.0078   -2.2055 H   0  0  0  0  0  0  0  0  0  0  0  0
   -2.6649   -1.4330   -2.0314 H   0  0  0  0  0  0  0  0  0  0  0  0
  1  5  2  0  0  0  0
  1  7  1  0  0  0  0
  1 19  1  0  0  0  0
  2 19  1  0  0  0  0
  6  1  2  0  0  0  0
  8 17  1  6  0  0  0
  8 12  1  0  0  0  0
  9  8  1  0  0  0  0
  9 10  2  0  0  0  0
 10 14  1  0  0  0  0
 10 11  1  0  0  0  0
 11 15  1  1  0  0  0
 12 11  1  0  0  0  0
 12 16  1  1  0  0  0
 13 21  1  0  0  0  0
 13  9  1  0  0  0  0
 14 24  1  0  0  0  0
 14 25  1  0  0  0  0
 15 26  1  0  0  0  0
 15 28  1  0  0  0  0
 15 27  1  0  0  0  0
 16 29  1  0  0  0  0
 16 30  1  0  0  0  0
 17 33  1  0  0  0  0
 18  7  1  0  0  0  0
 18 17  1  0  0  0  0
 19  4  1  0  0  0  0
 19  3  1  0  0  0  0
 20 13  1  0  0  0  0
 22 13  1  0  0  0  0
 23 14  1  0  0  0  0
 31 16  1  0  0  0  0
 32 17  1  0  0  0  0
 34 18  1  0  0  0  0
 35 18  1  0  0  0  0
M  END
