1,31,33
q = -1.0, confidence = 0.0

 35 38  0  0  1  0  0  0  0  0999 V2000
    0.8021    1.6536    1.1981 C   0  0  2  0  0  3  0  0  0  0  0  0
    2.2294    1.1360    1.3585 C   0  0  0  0  0  0  0  0  0  0  0  0
    2.9905    1.3669    2.5034 C   0  0  0  0  0  0  0  0  0  0  0  0
    2.5246    1.8960    3.3479 H   0  0  0  0  0  0  0  0  0  0  0  0
    4.3321    0.9141    2.5894 C   0  0  0  0  0  0  0  0  0  0  0  0
    4.9102    1.1123    3.5048 H   0  0  0  0  0  0  0  0  0  0  0  0
    4.9225    0.2237    1.5373 C   0  0  0  0  0  0  0  0  0  0  0  0
    5.9623   -0.1307    1.6048 H   0  0  0  0  0  0  0  0  0  0  0  0
    4.1724   -0.0575    0.3611 C   0  0  0  0  0  0  0  0  0  0  0  0
    2.8159    0.4037    0.2993 C   0  0  1  0  0  3  0  0  0  0  0  0
    4.6639   -0.8011   -0.7482 C   0  0  0  0  0  0  0  0  0  0  0  0
    5.6979   -1.1790   -0.7318 H   0  0  0  0  0  0  0  0  0  0  0  0
    3.8274   -1.0517   -1.8235 C   0  0  0  0  0  0  0  0  0  0  0  0
    4.1677   -1.6311   -2.6926 H   0  0  0  0  0  0  0  0  0  0  0  0
    2.4889   -0.5892   -1.7994 C   0  0  0  0  0  0  0  0  0  0  0  0
    1.7699   -0.7902   -2.6110 H   0  0  0  0  0  0  0  0  0  0  0  0
    0.8230    3.1627    0.8777 C   0  0  1  0  0  0  0  0  0  0  0  0
    1.3374    3.6674    1.7252 H   0  0  0  0  0  0  0  0  0  0  0  0
    1.5484    3.5247   -0.4680 C   0  0  2  0  0  0  0  0  0  0  0  0
    2.6502    3.5646   -0.3951 H   0  0  0  0  0  0  0  0  0  0  0  0
    0.8097    4.8239   -0.8826 C   0  0  0  0  0  0  0  0  0  0  0  0
    1.0860    5.1620   -1.9013 H   0  0  0  0  0  0  0  0  0  0  0  0
    0.9324    5.6640   -0.1673 H   0  0  0  0  0  0  0  0  0  0  0  0
   -0.5934    4.1536   -0.8146 C   0  0  2  0  0  0  0  0  0  0  0  0
   -1.4643    4.7581   -1.1307 H   0  0  0  0  0  0  0  0  0  0  0  0
   -0.5995    3.7588    0.6839 C   0  0  0  0  0  0  0  0  0  0  0  0
   -0.7390    4.6671    1.3031 H   0  0  0  0  0  0  0  0  0  0  0  0
   -1.3974    3.0514    0.9549 H   0  0  0  0  0  0  0  0  0  0  0  0
   -0.3344    2.9235   -1.6865 C   0  0  0  0  0  3  0  0  0  0  0  0
   -1.0078    2.5321   -2.4595 H   0  0  0  0  0  0  0  0  0  0  0  0
    0.9919    2.5807   -1.5345 C   0  0  0  0  0  3  0  0  0  0  0  0
    1.5902    1.9867   -2.2350 H   0  0  0  0  0  0  0  0  0  0  0  0
    2.0015    0.1062   -0.7697 N   0  0  0  0  0  2  0  0  0  0  0  0
    0.1067    1.4730    2.3901 O   0  0  0  0  0  0  0  0  0  0  0  0
    0.1239    0.4496    2.5280 H   0  0  0  0  0  0  0  0  0  0  0  0
  1  2  1  0  0  0  0
  1 34  1  1  0  0  0
  2  3  2  0  0  0  0
  3  5  1  0  0  0  0
  3  4  1  0  0  0  0
  5  6  1  0  0  0  0
  7  8  1  0  0  0  0
  7  5  2  0  0  0  0
  9  7  1  0  0  0  0
 10 33  1  1  0  0  0
 10  9  1  0  0  0  0
 10  2  1  0  0  0  0
 11 12  1  0  0  0  0
 11  9  2  0  0  0  0
 13 15  2  0  0  0  0
 13 11  1  0  0  0  0
 14 13  1  0  0  0  0
 15 33  1  0  0  0  0
 16 15  1  0  0  0  0
 17  1  1  0  0  0  0
 17 18  1  1  0  0  0
 19 20  1  1  0  0  0
 19 17  1  0  0  0  0
 21 24  1  0  0  0  0
 21 19  1  0  0  0  0
 21 23  1  0  0  0  0
 22 21  1  0  0  0  0
 24 25  1  6  0  0  0
 24 26  1  0  0  0  0
 26 17  1  0  0  0  0
 26 28  1  0  0  0  0
 26 27  1  0  0  0  0
 29 31  1  0  0  0  0
 29 24  1  0  0  0  0
 30 29  1  0  0  0  0
 31 19  1  0  0  0  0
 32 31  1  0  0  0  0
 34 35  1  0  0  0  0
M  END
