1,2,12
q = 0.0, confidence = 0.782

 43 44  0  0  0  0  0  0  0  0999 V2000
   -0.7348    1.6749   -0.3279 N   0  0  0  0  0  2  0  0  0  0  0  0
    1.1717   -0.1898   -0.0824 C   0  0  0  0  0  2  0  0  0  0  0  0
    0.5377    2.1670   -0.1798 C   0  0  0  0  0  0  0  0  0  0  0  0
    1.5996    1.1497   -0.0600 C   0  0  0  0  0  0  0  0  0  0  0  0
   -0.3540    4.4230   -0.2768 C   0  0  0  0  0  0  0  0  0  0  0  0
   -0.2013    5.5125   -0.2533 H   0  0  0  0  0  0  0  0  0  0  0  0
   -1.6431    3.8897   -0.4271 C   0  0  0  0  0  0  0  0  0  0  0  0
   -2.5276    4.5339   -0.5255 H   0  0  0  0  0  0  0  0  0  0  0  0
    2.0496   -1.2785   -0.0106 C   0  0  0  0  0  0  0  0  0  0  0  0
   -1.7888    2.4973   -0.4469 C   0  0  0  0  0  0  0  0  0  0  0  0
   -2.7743    2.0204   -0.5606 H   0  0  0  0  0  0  0  0  0  0  0  0
   -0.1317   -2.4713    0.1885 C   0  0  0  0  0  3  0  0  0  0  0  0
   -0.2963   -2.5884    1.2803 H   0  0  0  0  0  0  0  0  0  0  0  0
   -0.7826   -3.1896   -0.3477 H   0  0  0  0  0  0  0  0  0  0  0  0
    0.7408    3.5601   -0.1535 C   0  0  0  0  0  0  0  0  0  0  0  0
    1.7573    3.9582   -0.0311 H   0  0  0  0  0  0  0  0  0  0  0  0
    2.9853    1.3975    0.0638 C   0  0  0  0  0  0  0  0  0  0  0  0
    3.3488    2.4336    0.0808 H   0  0  0  0  0  0  0  0  0  0  0  0
    1.3797   -2.6391   -0.1772 C   0  0  0  0  0  0  0  0  0  0  0  0
    3.4184   -0.9978    0.1202 C   0  0  0  0  0  0  0  0  0  0  0  0
    4.1327   -1.8334    0.1877 H   0  0  0  0  0  0  0  0  0  0  0  0
    3.9048    0.3350    0.1642 C   0  0  0  0  0  0  0  0  0  0  0  0
    5.4195    0.5734    0.3143 C   0  0  0  0  0  0  0  0  0  0  0  0
    1.5024   -3.0427   -1.6644 C   0  0  0  0  0  0  0  0  0  0  0  0
    1.0116   -2.2915   -2.3156 H   0  0  0  0  0  0  0  0  0  0  0  0
    1.0180   -4.0251   -1.8418 H   0  0  0  0  0  0  0  0  0  0  0  0
    2.5656   -3.1187   -1.9698 H   0  0  0  0  0  0  0  0  0  0  0  0
    2.0079   -3.7272    0.7104 C   0  0  0  0  0  0  0  0  0  0  0  0
    3.0610   -3.9274    0.4231 H   0  0  0  0  0  0  0  0  0  0  0  0
    1.4510   -4.6808    0.6068 H   0  0  0  0  0  0  0  0  0  0  0  0
    1.9921   -3.4322    1.7788 H   0  0  0  0  0  0  0  0  0  0  0  0
    5.7746    2.0700    0.3427 C   0  0  0  0  0  0  0  0  0  0  0  0
    5.4775    2.5837   -0.5940 H   0  0  0  0  0  0  0  0  0  0  0  0
    6.8705    2.1925    0.4542 H   0  0  0  0  0  0  0  0  0  0  0  0
    5.2942    2.5927    1.1944 H   0  0  0  0  0  0  0  0  0  0  0  0
    5.9035   -0.0657    1.6361 C   0  0  0  0  0  0  0  0  0  0  0  0
    5.3879    0.3868    2.5071 H   0  0  0  0  0  0  0  0  0  0  0  0
    6.9951    0.0877    1.7626 H   0  0  0  0  0  0  0  0  0  0  0  0
    5.7127   -1.1568    1.6613 H   0  0  0  0  0  0  0  0  0  0  0  0
    6.1578   -0.0780   -0.8774 C   0  0  0  0  0  0  0  0  0  0  0  0
    5.9786   -1.1703   -0.9274 H   0  0  0  0  0  0  0  0  0  0  0  0
    7.2525    0.0784   -0.7863 H   0  0  0  0  0  0  0  0  0  0  0  0
    5.8250    0.3629   -1.8387 H   0  0  0  0  0  0  0  0  0  0  0  0
  1  3  1  0  0  0  0
  2  4  1  0  0  0  0
  2  9  1  0  0  0  0
  3 15  1  0  0  0  0
  3  4  2  0  0  0  0
  4 17  1  0  0  0  0
  5  6  1  0  0  0  0
  5 15  2  0  0  0  0
  7  5  1  0  0  0  0
  8  7  1  0  0  0  0
  9 20  2  0  0  0  0
 10  7  2  0  0  0  0
 10  1  1  0  0  0  0
 11 10  1  0  0  0  0
 12 13  1  0  0  0  0
 14 12  1  0  0  0  0
 15 16  1  0  0  0  0
 17 18  1  0  0  0  0
 17 22  2  0  0  0  0
 19  9  1  0  0  0  0
 19 12  1  0  0  0  0
 19 28  1  0  0  0  0
 20 22  1  0  0  0  0
 20 21  1  0  0  0  0
 22 23  1  0  0  0  0
 23 32  1  0  0  0  0
 23 36  1  0  0  0  0
 24 19  1  0  0  0  0
 25 24  1  0  0  0  0
 26 24  1  0  0  0  0
 27 24  1  0  0  0  0
 28 31  1  0  0  0  0
 29 28  1  0  0  0  0
 30 28  1  0  0  0  0
 32 34  1  0  0  0  0
 32 35  1  0  0  0  0
 33 32  1  0  0  0  0
 36 39  1  0  0  0  0
 36 38  1  0  0  0  0
 36 37  1  0  0  0  0
 40 42  1  0  0  0  0
 40 23  1  0  0  0  0
 41 40  1  0  0  0  0
 43 40  1  0  0  0  0
M  END
