1,5,40
q = -1.0, confidence = 0.072

 53 57  0  0  1  0  0  0  0  0999 V2000
   -1.2475   -0.3352   -0.7617 N   0  0  0  0  0  2  0  0  0  0  0  0
   -2.3818    0.7795   -2.5732 N   0  0  0  0  0  0  0  0  0  0  0  0
   -4.4529    1.8405   -1.8530 N   0  0  0  0  0  0  0  0  0  0  0  0
   -4.4437    1.2012    0.3269 N   0  0  0  0  0  0  0  0  0  0  0  0
    0.4127   -0.3383    1.6965 C   0  0  0  0  0  3  0  0  0  0  0  0
    1.2683   -0.7224    2.2773 H   0  0  0  0  0  0  0  0  0  0  0  0
   -0.9037   -0.6552    2.2801 C   0  0  0  0  0  0  0  0  0  0  0  0
   -0.9385   -1.1679    3.5959 C   0  0  0  0  0  0  0  0  0  0  0  0
    0.0108   -1.2707    4.1437 H   0  0  0  0  0  0  0  0  0  0  0  0
   -2.1418   -1.5234    4.2164 C   0  0  0  0  0  0  0  0  0  0  0  0
   -2.1336   -1.9153    5.2445 H   0  0  0  0  0  0  0  0  0  0  0  0
   -3.3534   -1.3673    3.5256 C   0  0  0  0  0  0  0  0  0  0  0  0
   -4.3067   -1.6388    4.0015 H   0  0  0  0  0  0  0  0  0  0  0  0
   -3.3467   -0.8695    2.2185 C   0  0  0  0  0  0  0  0  0  0  0  0
   -4.2950   -0.7432    1.6814 H   0  0  0  0  0  0  0  0  0  0  0  0
   -2.1379   -0.5298    1.5645 C   0  0  0  0  0  0  0  0  0  0  0  0
   -2.2252   -0.0657    0.1689 C   0  0  2  0  0  3  0  0  0  0  0  0
   -3.3287    0.6897   -0.3031 C   0  0  0  0  0  0  0  0  0  0  0  0
   -5.0797    1.8726   -0.6173 C   0  0  0  0  0  0  0  0  0  0  0  0
   -6.0211    2.4219   -0.4748 H   0  0  0  0  0  0  0  0  0  0  0  0
   -3.3194    1.0827   -1.6708 C   0  0  0  0  0  0  0  0  0  0  0  0
   -1.3786    0.0822   -2.0602 C   0  0  0  0  0  0  0  0  0  0  0  0
   -0.5396   -0.1851   -2.7188 H   0  0  0  0  0  0  0  0  0  0  0  0
   -4.8608    2.4832   -3.0926 C   0  0  0  0  0  0  0  0  0  0  0  0
   -5.8718    2.1460   -3.3922 H   0  0  0  0  0  0  0  0  0  0  0  0
   -4.1338    2.1977   -3.8749 H   0  0  0  0  0  0  0  0  0  0  0  0
   -4.8596    3.5850   -2.9804 H   0  0  0  0  0  0  0  0  0  0  0  0
    0.7091    0.7971    0.8218 C   0  0  2  0  0  3  0  0  0  0  0  0
   -0.1825    1.9738    0.6590 C   0  0  0  0  0  0  0  0  0  0  0  0
   -0.9587    2.4263    1.7504 C   0  0  0  0  0  0  0  0  0  0  0  0
   -0.9096    1.8980    2.7126 H   0  0  0  0  0  0  0  0  0  0  0  0
   -1.7853    3.5488    1.6167 C   0  0  0  0  0  0  0  0  0  0  0  0
   -2.3831    3.8895    2.4746 H   0  0  0  0  0  0  0  0  0  0  0  0
   -1.8528    4.2326    0.3925 C   0  0  0  0  0  0  0  0  0  0  0  0
   -2.5090    5.1098    0.2874 H   0  0  0  0  0  0  0  0  0  0  0  0
   -1.0668    3.8054   -0.6920 C   0  0  0  0  0  0  0  0  0  0  0  0
   -1.1002    4.3491   -1.6480 H   0  0  0  0  0  0  0  0  0  0  0  0
   -0.2314    2.6911   -0.5580 C   0  0  0  0  0  0  0  0  0  0  0  0
    0.3873    2.3554   -1.4024 H   0  0  0  0  0  0  0  0  0  0  0  0
    1.7577    0.5520   -0.1039 C   0  0  0  0  0  2  0  0  0  0  0  0
    2.8485    1.1389   -0.6392 C   0  0  0  0  0  3  0  0  0  0  0  0
    3.2555    0.7274   -1.5780 H   0  0  0  0  0  0  0  0  0  0  0  0
    3.5710    2.2930   -0.0925 C   0  0  0  0  0  0  0  0  0  0  0  0
    3.2677    2.8674    1.1662 C   0  0  0  0  0  0  0  0  0  0  0  0
    2.4845    2.4197    1.7954 H   0  0  0  0  0  0  0  0  0  0  0  0
    3.9632    3.9914    1.6224 C   0  0  0  0  0  0  0  0  0  0  0  0
    3.7148    4.4251    2.6028 H   0  0  0  0  0  0  0  0  0  0  0  0
    4.9836    4.5622    0.8406 C   0  0  0  0  0  0  0  0  0  0  0  0
    5.5322    5.4430    1.2061 H   0  0  0  0  0  0  0  0  0  0  0  0
    5.3055    3.9958   -0.4028 C   0  0  0  0  0  0  0  0  0  0  0  0
    6.1063    4.4327   -1.0180 H   0  0  0  0  0  0  0  0  0  0  0  0
    4.6086    2.8717   -0.8629 C   0  0  0  0  0  0  0  0  0  0  0  0
    4.8602    2.4318   -1.8410 H   0  0  0  0  0  0  0  0  0  0  0  0
  1 17  1  0  0  0  0
  2 22  2  0  0  0  0
  2 21  1  0  0  0  0
  3 21  1  0  0  0  0
  3 19  1  0  0  0  0
  5  6  1  0  0  0  0
  5  7  1  0  0  0  0
  7  8  1  0  0  0  0
  8  9  1  0  0  0  0
  8 10  2  0  0  0  0
 10 11  1  0  0  0  0
 12 13  1  0  0  0  0
 12 10  1  0  0  0  0
 14 12  2  0  0  0  0
 15 14  1  0  0  0  0
 16 14  1  0  0  0  0
 16  7  2  0  0  0  0
 17 16  1  6  0  0  0
 18 17  1  0  0  0  0
 18  4  1  0  0  0  0
 19 20  1  0  0  0  0
 19  4  2  0  0  0  0
 21 18  2  0  0  0  0
 22  1  1  0  0  0  0
 23 22  1  0  0  0  0
 24 27  1  0  0  0  0
 24  3  1  0  0  0  0
 25 24  1  0  0  0  0
 26 24  1  0  0  0  0
 28 40  1  6  0  0  0
 28  5  1  0  0  0  0
 29 28  1  0  0  0  0
 29 30  1  0  0  0  0
 30 31  1  0  0  0  0
 32 30  2  0  0  0  0
 32 33  1  0  0  0  0
 34 32  1  0  0  0  0
 35 34  1  0  0  0  0
 36 38  1  0  0  0  0
 36 34  2  0  0  0  0
 37 36  1  0  0  0  0
 38 29  2  0  0  0  0
 39 38  1  0  0  0  0
 41 40  1  0  0  0  0
 41 43  1  0  0  0  0
 42 41  1  0  0  0  0
 43 44  1  0  0  0  0
 44 46  2  0  0  0  0
 44 45  1  0  0  0  0
 46 47  1  0  0  0  0
 48 49  1  0  0  0  0
 48 46  1  0  0  0  0
 50 48  2  0  0  0  0
 51 50  1  0  0  0  0
 52 50  1  0  0  0  0
 52 43  2  0  0  0  0
 53 52  1  0  0  0  0
M  END
