2,10
q = 0.0, confidence = 0.988

 35 35  0  0  1  0  0  0  0  0999 V2000
   -4.4595    0.9223   -0.0348 Si  0  0  0  0  0  0  0  0  0  0  0  0
   -0.4174   -1.6264   -1.6744 N   0  0  0  0  0  0  0  0  0  0  0  0
   -0.1867   -3.0826   -1.5421 C   0  0  0  0  0  0  0  0  0  0  0  0
   -1.3300   -3.8286   -0.8575 C   0  0  0  0  0  0  0  0  0  0  0  0
   -1.4399   -3.5912    0.6584 C   0  0  0  0  0  0  0  0  0  0  0  0
   -1.6805   -2.1560    1.0544 C   0  0  2  0  0  3  0  0  0  0  0  0
   -2.8058   -1.4222    0.5091 C   0  0  0  0  0  0  0  0  0  0  0  0
   -2.9919   -0.0400    0.7641 C   0  0  0  0  0  0  0  0  0  0  0  0
   -2.0185    0.6304    1.5976 C   0  0  0  0  0  3  0  0  0  0  0  0
   -0.9586   -0.0926    2.2137 C   0  0  0  0  0  3  0  0  0  0  0  0
   -0.8041   -1.4952    1.9680 C   0  0  0  0  0  3  0  0  0  0  0  0
   -4.7233    0.2513   -1.7752 C   0  0  0  0  0  0  0  0  0  0  0  0
   -4.0502    2.7591   -0.0214 C   0  0  0  0  0  0  0  0  0  0  0  0
   -5.9414    0.5442    1.0745 C   0  0  0  0  0  0  0  0  0  0  0  0
   -1.2183   -1.4370   -2.2975 H   0  0  0  0  0  0  0  0  0  0  0  0
    0.3912   -1.1935   -2.1545 H   0  0  0  0  0  0  0  0  0  0  0  0
   -0.0254   -3.5093   -2.5551 H   0  0  0  0  0  0  0  0  0  0  0  0
    0.7618   -3.2194   -0.9817 H   0  0  0  0  0  0  0  0  0  0  0  0
   -2.2869   -3.5800   -1.3668 H   0  0  0  0  0  0  0  0  0  0  0  0
   -1.1801   -4.9135   -1.0297 H   0  0  0  0  0  0  0  0  0  0  0  0
   -2.2723   -4.2084    1.0601 H   0  0  0  0  0  0  0  0  0  0  0  0
   -0.5164   -3.9530    1.1553 H   0  0  0  0  0  0  0  0  0  0  0  0
   -3.4877   -1.9368   -0.1854 H   0  0  0  0  0  0  0  0  0  0  0  0
   -2.0946    1.7151    1.7574 H   0  0  0  0  0  0  0  0  0  0  0  0
   -0.2191    0.4339    2.8360 H   0  0  0  0  0  0  0  0  0  0  0  0
    0.0418   -2.0379    2.4105 H   0  0  0  0  0  0  0  0  0  0  0  0
   -3.8169    0.4240   -2.3891 H   0  0  0  0  0  0  0  0  0  0  0  0
   -5.5750    0.7739   -2.2567 H   0  0  0  0  0  0  0  0  0  0  0  0
   -4.9633   -0.8318   -1.7755 H   0  0  0  0  0  0  0  0  0  0  0  0
   -3.9614    3.1560    1.0108 H   0  0  0  0  0  0  0  0  0  0  0  0
   -4.8617    3.3274   -0.5205 H   0  0  0  0  0  0  0  0  0  0  0  0
   -3.1058    2.9511   -0.5683 H   0  0  0  0  0  0  0  0  0  0  0  0
   -6.1656   -0.5414    1.1019 H   0  0  0  0  0  0  0  0  0  0  0  0
   -6.8430    1.0659    0.6917 H   0  0  0  0  0  0  0  0  0  0  0  0
   -5.7703    0.8868    2.1151 H   0  0  0  0  0  0  0  0  0  0  0  0
  1 13  1  0  0  0  0
  1  8  1  0  0  0  0
  1 14  1  0  0  0  0
  2  3  1  0  0  0  0
  3 18  1  0  0  0  0
  3  4  1  0  0  0  0
  4  5  1  0  0  0  0
  5 21  1  0  0  0  0
  5 22  1  0  0  0  0
  6  5  1  6  0  0  0
  6 11  1  0  0  0  0
  7  8  2  0  0  0  0
  7  6  1  0  0  0  0
  8  9  1  0  0  0  0
  9 24  1  0  0  0  0
  9 10  1  0  0  0  0
 10 25  1  0  0  0  0
 11 10  1  0  0  0  0
 11 26  1  0  0  0  0
 12  1  1  0  0  0  0
 13 30  1  0  0  0  0
 14 33  1  0  0  0  0
 14 35  1  0  0  0  0
 15  2  1  0  0  0  0
 16  2  1  0  0  0  0
 17  3  1  0  0  0  0
 19  4  1  0  0  0  0
 20  4  1  0  0  0  0
 23  7  1  0  0  0  0
 27 12  1  0  0  0  0
 28 12  1  0  0  0  0
 29 12  1  0  0  0  0
 31 13  1  0  0  0  0
 32 13  1  0  0  0  0
 34 14  1  0  0  0  0
M  END
