3,6,18
q = 0.0, confidence = 0.994

 69 73  0  0  1  0  0  0  0  0999 V2000
    2.6409   -0.0052    1.3307 N   0  0  0  0  0  0  0  0  0  0  0  0
    1.4284    1.5098    2.2799 N   0  0  0  0  0  0  0  0  0  0  0  0
   -0.0000    2.5701    0.0000 N   0  0  0  0  0  2  0  0  0  0  0  0
   -1.4284    1.5098   -2.2799 N   0  0  0  0  0  0  0  0  0  0  0  0
   -2.6408   -0.0052   -1.3307 N   0  0  0  0  0  0  0  0  0  0  0  0
    1.4527    0.6537    1.2206 C   0  0  0  0  0  2  0  0  0  0  0  0
    3.3456    0.4414    2.4480 C   0  0  0  0  0  0  0  0  0  0  0  0
    2.5792    1.4038    3.0528 C   0  0  0  0  0  0  0  0  0  0  0  0
    0.3297    2.4546    2.4320 C   0  0  0  0  0  0  0  0  0  0  0  0
    0.1509    3.2636    1.1655 C   0  0  1  0  0  3  0  0  0  0  0  0
    0.1526    4.6636    1.1926 C   0  0  0  0  0  0  0  0  0  0  0  0
   -0.0001    5.3812    0.0001 C   0  0  0  0  0  0  0  0  0  0  0  0
   -0.1528    4.6637   -1.1925 C   0  0  0  0  0  0  0  0  0  0  0  0
   -0.1510    3.2637   -1.1655 C   0  0  0  0  0  0  0  0  0  0  0  0
   -0.3298    2.4547   -2.4319 C   0  0  0  0  0  0  0  0  0  0  0  0
   -2.5793    1.4039   -3.0527 C   0  0  0  0  0  0  0  0  0  0  0  0
   -3.3456    0.4414   -2.4479 C   0  0  0  0  0  0  0  0  0  0  0  0
   -1.4527    0.6537   -1.2206 C   0  0  0  0  0  2  0  0  0  0  0  0
    3.1652   -0.9689    0.3942 C   0  0  0  0  0  0  0  0  0  0  0  0
    3.2472   -2.3235    0.7843 C   0  0  0  0  0  0  0  0  0  0  0  0
    3.7897   -3.2289   -0.1409 C   0  0  0  0  0  0  0  0  0  0  0  0
    4.2324   -2.8248   -1.4159 C   0  0  0  0  0  0  0  0  0  0  0  0
    4.1131   -1.4671   -1.7629 C   0  0  0  0  0  0  0  0  0  0  0  0
    3.5836   -0.5158   -0.8732 C   0  0  0  0  0  0  0  0  0  0  0  0
    2.7026   -2.7863    2.1094 C   0  0  0  0  0  0  0  0  0  0  0  0
    4.8270   -3.8258   -2.3721 C   0  0  0  0  0  0  0  0  0  0  0  0
    3.4420    0.9303   -1.2722 C   0  0  0  0  0  0  0  0  0  0  0  0
   -3.1652   -0.9690   -0.3943 C   0  0  0  0  0  0  0  0  0  0  0  0
   -3.2470   -2.3236   -0.7845 C   0  0  0  0  0  0  0  0  0  0  0  0
   -3.7895   -3.2291    0.1407 C   0  0  0  0  0  0  0  0  0  0  0  0
   -4.2324   -2.8250    1.4156 C   0  0  0  0  0  0  0  0  0  0  0  0
   -4.1133   -1.4673    1.7627 C   0  0  0  0  0  0  0  0  0  0  0  0
   -3.5838   -0.5160    0.8730 C   0  0  0  0  0  0  0  0  0  0  0  0
   -2.7020   -2.7864   -2.1094 C   0  0  0  0  0  0  0  0  0  0  0  0
   -4.8267   -3.8262    2.3719 C   0  0  0  0  0  0  0  0  0  0  0  0
   -3.4424    0.9302    1.2720 C   0  0  0  0  0  0  0  0  0  0  0  0
    4.3322    0.0428    2.7012 H   0  0  0  0  0  0  0  0  0  0  0  0
    2.7503    2.0002    3.9540 H   0  0  0  0  0  0  0  0  0  0  0  0
    0.5445    3.1234    3.2845 H   0  0  0  0  0  0  0  0  0  0  0  0
   -0.6047    1.8979    2.6629 H   0  0  0  0  0  0  0  0  0  0  0  0
    0.2765    5.1839    2.1531 H   0  0  0  0  0  0  0  0  0  0  0  0
   -0.0001    6.4806    0.0001 H   0  0  0  0  0  0  0  0  0  0  0  0
   -0.2766    5.1840   -2.1529 H   0  0  0  0  0  0  0  0  0  0  0  0
   -0.5447    3.1235   -3.2844 H   0  0  0  0  0  0  0  0  0  0  0  0
    0.6047    1.8981   -2.6629 H   0  0  0  0  0  0  0  0  0  0  0  0
   -2.7504    2.0004   -3.9539 H   0  0  0  0  0  0  0  0  0  0  0  0
   -4.3322    0.0429   -2.7011 H   0  0  0  0  0  0  0  0  0  0  0  0
    3.8531   -4.2922    0.1397 H   0  0  0  0  0  0  0  0  0  0  0  0
    4.4467   -1.1335   -2.7583 H   0  0  0  0  0  0  0  0  0  0  0  0
    3.2336   -2.3349    2.9725 H   0  0  0  0  0  0  0  0  0  0  0  0
    1.6320   -2.5041    2.1921 H   0  0  0  0  0  0  0  0  0  0  0  0
    2.7803   -3.8849    2.2061 H   0  0  0  0  0  0  0  0  0  0  0  0
    4.2094   -4.7445   -2.4307 H   0  0  0  0  0  0  0  0  0  0  0  0
    5.8381   -4.1403   -2.0372 H   0  0  0  0  0  0  0  0  0  0  0  0
    4.9277   -3.4106   -3.3930 H   0  0  0  0  0  0  0  0  0  0  0  0
    3.9301    1.1265   -2.2450 H   0  0  0  0  0  0  0  0  0  0  0  0
    2.3678    1.2063   -1.3564 H   0  0  0  0  0  0  0  0  0  0  0  0
    3.8815    1.6162   -0.5188 H   0  0  0  0  0  0  0  0  0  0  0  0
   -3.8528   -4.2924   -0.1399 H   0  0  0  0  0  0  0  0  0  0  0  0
   -4.4472   -1.1337    2.7580 H   0  0  0  0  0  0  0  0  0  0  0  0
   -1.6310   -2.5053   -2.1911 H   0  0  0  0  0  0  0  0  0  0  0  0
   -2.7809   -3.8849   -2.2066 H   0  0  0  0  0  0  0  0  0  0  0  0
   -3.2318   -2.3339   -2.9726 H   0  0  0  0  0  0  0  0  0  0  0  0
   -4.2071   -4.7435    2.4327 H   0  0  0  0  0  0  0  0  0  0  0  0
   -5.8364   -4.1434    2.0354 H   0  0  0  0  0  0  0  0  0  0  0  0
   -4.9302   -3.4101    3.3921 H   0  0  0  0  0  0  0  0  0  0  0  0
   -2.3683    1.2063    1.3562 H   0  0  0  0  0  0  0  0  0  0  0  0
   -3.8820    1.6160    0.5185 H   0  0  0  0  0  0  0  0  0  0  0  0
   -3.9306    1.1263    2.2448 H   0  0  0  0  0  0  0  0  0  0  0  0
  1  7  1  0  0  0  0
  2  9  1  0  0  0  0
  2  8  1  0  0  0  0
  3 10  1  0  0  0  0
  4 18  1  0  0  0  0
  5 18  1  0  0  0  0
  5 28  1  0  0  0  0
  6  1  1  0  0  0  0
  6  2  1  0  0  0  0
  7 37  1  0  0  0  0
  7  8  2  0  0  0  0
  8 38  1  0  0  0  0
  9 40  1  0  0  0  0
  9 39  1  0  0  0  0
 10 11  1  0  0  0  0
 10  9  1  6  0  0  0
 11 41  1  0  0  0  0
 12 42  1  0  0  0  0
 12 11  2  0  0  0  0
 13 14  2  0  0  0  0
 13 12  1  0  0  0  0
 14  3  1  0  0  0  0
 15  4  1  0  0  0  0
 15 14  1  0  0  0  0
 16 17  2  0  0  0  0
 16  4  1  0  0  0  0
 17  5  1  0  0  0  0
 19 20  1  0  0  0  0
 19  1  1  0  0  0  0
 20 25  1  0  0  0  0
 21 48  1  0  0  0  0
 21 20  2  0  0  0  0
 22 21  1  0  0  0  0
 23 22  2  0  0  0  0
 23 24  1  0  0  0  0
 24 19  2  0  0  0  0
 25 51  1  0  0  0  0
 25 52  1  0  0  0  0
 25 50  1  0  0  0  0
 26 54  1  0  0  0  0
 26 22  1  0  0  0  0
 27 24  1  0  0  0  0
 27 58  1  0  0  0  0
 28 33  1  0  0  0  0
 29 28  2  0  0  0  0
 29 30  1  0  0  0  0
 30 31  2  0  0  0  0
 31 32  1  0  0  0  0
 31 35  1  0  0  0  0
 32 60  1  0  0  0  0
 33 36  1  0  0  0  0
 33 32  2  0  0  0  0
 34 29  1  0  0  0  0
 35 64  1  0  0  0  0
 35 66  1  0  0  0  0
 36 67  1  0  0  0  0
 36 69  1  0  0  0  0
 43 13  1  0  0  0  0
 44 15  1  0  0  0  0
 45 15  1  0  0  0  0
 46 16  1  0  0  0  0
 47 17  1  0  0  0  0
 49 23  1  0  0  0  0
 53 26  1  0  0  0  0
 55 26  1  0  0  0  0
 56 27  1  0  0  0  0
 57 27  1  0  0  0  0
 59 30  1  0  0  0  0
 61 34  1  0  0  0  0
 62 34  1  0  0  0  0
 63 34  1  0  0  0  0
 65 35  1  0  0  0  0
 68 36  1  0  0  0  0
M  END
