3,4,28
q = -2.0, confidence = 0.816

 41 43  0  0  0  0  0  0  0  0999 V2000
    4.4007   -4.0903    0.0000 F   0  0  0  0  0  0  0  0  0  0  0  0
    0.1568    5.9973    0.0000 F   0  0  0  0  0  0  0  0  0  0  0  0
   -0.5011   -0.2159   -0.0000 N   0  0  0  0  0  2  0  0  0  0  0  0
    1.8795   -1.4535   -0.0000 C   0  0  0  0  0  2  0  0  0  0  0  0
    3.1248   -2.0919   -0.0000 C   0  0  0  0  0  0  0  0  0  0  0  0
    4.0652   -1.5194   -0.0000 H   0  0  0  0  0  0  0  0  0  0  0  0
    3.1941   -3.4935    0.0000 C   0  0  0  0  0  0  0  0  0  0  0  0
    2.0457   -4.2969    0.0000 C   0  0  0  0  0  0  0  0  0  0  0  0
    2.1496   -5.3909    0.0000 H   0  0  0  0  0  0  0  0  0  0  0  0
    0.7936   -3.6720    0.0000 C   0  0  0  0  0  0  0  0  0  0  0  0
   -0.1124   -4.2975    0.0000 H   0  0  0  0  0  0  0  0  0  0  0  0
    0.6912   -2.2650    0.0000 C   0  0  0  0  0  0  0  0  0  0  0  0
   -0.6104   -1.5636    0.0000 C   0  0  0  0  0  0  0  0  0  0  0  0
   -1.9032   -2.1240    0.0001 C   0  0  0  0  0  0  0  0  0  0  0  0
   -2.0127   -3.2143    0.0001 H   0  0  0  0  0  0  0  0  0  0  0  0
   -3.0367   -1.2864    0.0001 C   0  0  0  0  0  0  0  0  0  0  0  0
   -2.8422    0.1142    0.0001 C   0  0  0  0  0  0  0  0  0  0  0  0
   -3.7042    0.7942    0.0001 H   0  0  0  0  0  0  0  0  0  0  0  0
   -1.5435    0.6495    0.0000 C   0  0  0  0  0  0  0  0  0  0  0  0
   -1.1318    2.0698    0.0000 C   0  0  0  0  0  0  0  0  0  0  0  0
   -2.0663    3.1263    0.0000 C   0  0  0  0  0  0  0  0  0  0  0  0
   -3.1469    2.9155    0.0000 H   0  0  0  0  0  0  0  0  0  0  0  0
   -1.6388    4.4589    0.0000 C   0  0  0  0  0  0  0  0  0  0  0  0
   -2.3486    5.2977    0.0000 H   0  0  0  0  0  0  0  0  0  0  0  0
   -0.2616    4.7176    0.0000 C   0  0  0  0  0  0  0  0  0  0  0  0
    0.6913    3.6876   -0.0000 C   0  0  0  0  0  0  0  0  0  0  0  0
    1.7571    3.9643   -0.0000 H   0  0  0  0  0  0  0  0  0  0  0  0
    0.2799    2.3502   -0.0000 C   0  0  0  0  0  3  0  0  0  0  0  0
   -4.4684   -1.8472    0.0000 C   0  0  0  0  0  0  0  0  0  0  0  0
   -4.4919   -3.3852    0.0006 C   0  0  0  0  0  0  0  0  0  0  0  0
   -3.9982   -3.8068   -0.8979 H   0  0  0  0  0  0  0  0  0  0  0  0
   -5.5411   -3.7416    0.0006 H   0  0  0  0  0  0  0  0  0  0  0  0
   -3.9985   -3.8060    0.8996 H   0  0  0  0  0  0  0  0  0  0  0  0
   -5.2035   -1.3444    1.2639 C   0  0  0  0  0  0  0  0  0  0  0  0
   -4.6898   -1.6858    2.1850 H   0  0  0  0  0  0  0  0  0  0  0  0
   -6.2411   -1.7360    1.2823 H   0  0  0  0  0  0  0  0  0  0  0  0
   -5.2610   -0.2386    1.2983 H   0  0  0  0  0  0  0  0  0  0  0  0
   -5.2028   -1.3453   -1.2647 C   0  0  0  0  0  0  0  0  0  0  0  0
   -5.2601   -0.2396   -1.3000 H   0  0  0  0  0  0  0  0  0  0  0  0
   -6.2404   -1.7369   -1.2834 H   0  0  0  0  0  0  0  0  0  0  0  0
   -4.6886   -1.6875   -2.1852 H   0  0  0  0  0  0  0  0  0  0  0  0
  3 19  1  0  0  0  0
  3 13  1  0  0  0  0
  4  5  1  0  0  0  0
  4 12  1  0  0  0  0
  5  7  2  0  0  0  0
  6  5  1  0  0  0  0
  7  1  1  0  0  0  0
  7  8  1  0  0  0  0
  8 10  2  0  0  0  0
  8  9  1  0  0  0  0
 10 11  1  0  0  0  0
 12 10  1  0  0  0  0
 12 13  2  0  0  0  0
 13 14  1  0  0  0  0
 14 16  2  0  0  0  0
 14 15  1  0  0  0  0
 17 18  1  0  0  0  0
 17 16  1  0  0  0  0
 19 17  2  0  0  0  0
 20 21  1  0  0  0  0
 20 19  1  0  0  0  0
 21 23  2  0  0  0  0
 21 22  1  0  0  0  0
 23 24  1  0  0  0  0
 25  2  1  0  0  0  0
 25 23  1  0  0  0  0
 26 25  2  0  0  0  0
 27 26  1  0  0  0  0
 28 26  1  0  0  0  0
 28 20  2  0  0  0  0
 29 16  1  0  0  0  0
 29 30  1  0  0  0  0
 29 34  1  0  0  0  0
 30 33  1  0  0  0  0
 31 30  1  0  0  0  0
 32 30  1  0  0  0  0
 34 36  1  0  0  0  0
 34 37  1  0  0  0  0
 34 35  1  0  0  0  0
 38 29  1  0  0  0  0
 39 38  1  0  0  0  0
 40 38  1  0  0  0  0
 41 38  1  0  0  0  0
M  END
