1,17,25
q = 0.0, confidence = 0.986

 65 68  0  0  1  0  0  0  0  0999 V2000
    3.2456   -0.1963    0.1156 N   0  0  0  0  0  2  0  0  0  0  0  0
    1.7261   -2.6572   -0.6444 N   0  0  0  0  0  0  0  0  0  0  0  0
   -0.1701   -2.0615   -1.4653 N   0  0  0  0  0  0  0  0  0  0  0  0
    2.2004    2.5431   -0.6143 N   0  0  0  0  0  0  0  0  0  0  0  0
    0.1175    2.5257   -1.1641 N   0  0  0  0  0  0  0  0  0  0  0  0
    3.7868   -1.4215   -0.1579 C   0  0  2  0  0  3  0  0  0  0  0  0
    5.0662   -1.5809   -0.7092 C   0  0  0  0  0  0  0  0  0  0  0  0
    5.4439   -2.5960   -0.8999 H   0  0  0  0  0  0  0  0  0  0  0  0
    5.8439   -0.4565   -1.0071 C   0  0  0  0  0  0  0  0  0  0  0  0
    6.8530   -0.5572   -1.4323 H   0  0  0  0  0  0  0  0  0  0  0  0
    5.2865    0.8012   -0.7499 C   0  0  0  0  0  0  0  0  0  0  0  0
    5.8438    1.7226   -0.9735 H   0  0  0  0  0  0  0  0  0  0  0  0
    4.0037    0.8972   -0.1920 C   0  0  0  0  0  0  0  0  0  0  0  0
    2.9485   -2.6352    0.1463 C   0  0  0  0  0  0  0  0  0  0  0  0
    3.5191   -3.5565   -0.0712 H   0  0  0  0  0  0  0  0  0  0  0  0
    2.6685   -2.6253    1.2211 H   0  0  0  0  0  0  0  0  0  0  0  0
    0.7862   -1.6540   -0.5625 C   0  0  0  0  0  2  0  0  0  0  0  0
    0.1665   -3.2638   -2.0763 C   0  0  0  0  0  0  0  0  0  0  0  0
   -0.4757   -3.7495   -2.8167 H   0  0  0  0  0  0  0  0  0  0  0  0
    1.3763   -3.6417   -1.5580 C   0  0  0  0  0  0  0  0  0  0  0  0
    1.9971   -4.5222   -1.7490 H   0  0  0  0  0  0  0  0  0  0  0  0
    3.4267    2.2529    0.1160 C   0  0  0  0  0  0  0  0  0  0  0  0
    3.1987    2.3042    1.2030 H   0  0  0  0  0  0  0  0  0  0  0  0
    4.1643    3.0385   -0.1299 H   0  0  0  0  0  0  0  0  0  0  0  0
    1.0489    1.8043   -0.4444 C   0  0  0  0  0  2  0  0  0  0  0  0
    0.6815    3.6465   -1.7661 C   0  0  0  0  0  0  0  0  0  0  0  0
    0.1037    4.3393   -2.3841 H   0  0  0  0  0  0  0  0  0  0  0  0
    2.0041    3.6591   -1.4168 C   0  0  0  0  0  0  0  0  0  0  0  0
    2.8044    4.3648   -1.6592 H   0  0  0  0  0  0  0  0  0  0  0  0
   -1.2987    2.1919   -1.2576 C   0  0  0  0  0  0  0  0  0  0  0  0
   -1.4370    1.3353   -0.5775 H   0  0  0  0  0  0  0  0  0  0  0  0
   -1.5287    1.8528   -2.2924 H   0  0  0  0  0  0  0  0  0  0  0  0
   -2.2403    3.3295   -0.8540 C   0  0  0  0  0  0  0  0  0  0  0  0
   -2.0457    4.2239   -1.4840 H   0  0  0  0  0  0  0  0  0  0  0  0
   -2.0105    3.6244    0.1926 H   0  0  0  0  0  0  0  0  0  0  0  0
   -3.7214    2.9394   -0.9799 C   0  0  0  0  0  0  0  0  0  0  0  0
   -4.3416    3.8485   -0.8230 H   0  0  0  0  0  0  0  0  0  0  0  0
   -3.9279    2.6163   -2.0266 H   0  0  0  0  0  0  0  0  0  0  0  0
   -4.1750    1.8466   -0.0069 C   0  0  0  0  0  0  0  0  0  0  0  0
   -3.9632    2.1744    1.0347 H   0  0  0  0  0  0  0  0  0  0  0  0
   -3.5522    0.9391   -0.1422 H   0  0  0  0  0  0  0  0  0  0  0  0
   -5.6524    1.4644   -0.1364 C   0  0  0  0  0  0  0  0  0  0  0  0
   -6.2770    2.3846   -0.0980 H   0  0  0  0  0  0  0  0  0  0  0  0
   -5.8307    1.0326   -1.1474 H   0  0  0  0  0  0  0  0  0  0  0  0
   -6.1439    0.4927    0.9515 C   0  0  0  0  0  0  0  0  0  0  0  0
   -7.2183    0.2650    0.7713 H   0  0  0  0  0  0  0  0  0  0  0  0
   -6.1046    1.0171    1.9313 H   0  0  0  0  0  0  0  0  0  0  0  0
   -5.3538   -0.8197    1.0746 C   0  0  0  0  0  0  0  0  0  0  0  0
   -4.2912   -0.5839    1.2920 H   0  0  0  0  0  0  0  0  0  0  0  0
   -5.7163   -1.3750    1.9671 H   0  0  0  0  0  0  0  0  0  0  0  0
   -5.4538   -1.7409   -0.1484 C   0  0  0  0  0  0  0  0  0  0  0  0
   -5.2877   -1.1507   -1.0771 H   0  0  0  0  0  0  0  0  0  0  0  0
   -6.4957   -2.1205   -0.2342 H   0  0  0  0  0  0  0  0  0  0  0  0
   -4.4778   -2.9294   -0.1216 C   0  0  0  0  0  0  0  0  0  0  0  0
   -4.7616   -3.6578   -0.9139 H   0  0  0  0  0  0  0  0  0  0  0  0
   -4.5952   -3.4696    0.8429 H   0  0  0  0  0  0  0  0  0  0  0  0
   -3.0004   -2.5411   -0.2989 C   0  0  0  0  0  0  0  0  0  0  0  0
   -2.7225   -1.7708    0.4499 H   0  0  0  0  0  0  0  0  0  0  0  0
   -2.3534   -3.4157   -0.0754 H   0  0  0  0  0  0  0  0  0  0  0  0
   -2.6772   -2.0173   -1.7028 C   0  0  0  0  0  0  0  0  0  0  0  0
   -3.4544   -1.2903   -2.0233 H   0  0  0  0  0  0  0  0  0  0  0  0
   -2.7311   -2.8454   -2.4453 H   0  0  0  0  0  0  0  0  0  0  0  0
   -1.3466   -1.2760   -1.8134 C   0  0  0  0  0  0  0  0  0  0  0  0
   -1.3274   -0.4230   -1.1157 H   0  0  0  0  0  0  0  0  0  0  0  0
   -1.2110   -0.8716   -2.8407 H   0  0  0  0  0  0  0  0  0  0  0  0
  2 17  1  0  0  0  0
  2 14  1  0  0  0  0
  3 17  1  0  0  0  0
  4 25  1  0  0  0  0
  4 22  1  0  0  0  0
  5 25  1  0  0  0  0
  6  7  1  6  0  0  0
  6  1  1  0  0  0  0
  6 14  1  0  0  0  0
  8  7  1  0  0  0  0
  9 11  1  0  0  0  0
  9  7  2  0  0  0  0
 10  9  1  0  0  0  0
 11 13  2  0  0  0  0
 12 11  1  0  0  0  0
 13  1  1  0  0  0  0
 13 22  1  0  0  0  0
 14 16  1  0  0  0  0
 15 14  1  0  0  0  0
 18 20  2  0  0  0  0
 18  3  1  0  0  0  0
 19 18  1  0  0  0  0
 20  2  1  0  0  0  0
 21 20  1  0  0  0  0
 22 23  1  0  0  0  0
 24 22  1  0  0  0  0
 26 28  2  0  0  0  0
 26  5  1  0  0  0  0
 27 26  1  0  0  0  0
 28  4  1  0  0  0  0
 29 28  1  0  0  0  0
 30  5  1  0  0  0  0
 30 33  1  0  0  0  0
 30 31  1  0  0  0  0
 32 30  1  0  0  0  0
 33 35  1  0  0  0  0
 34 33  1  0  0  0  0
 36 33  1  0  0  0  0
 36 37  1  0  0  0  0
 36 39  1  0  0  0  0
 38 36  1  0  0  0  0
 39 40  1  0  0  0  0
 41 39  1  0  0  0  0
 42 43  1  0  0  0  0
 42 39  1  0  0  0  0
 42 45  1  0  0  0  0
 44 42  1  0  0  0  0
 45 48  1  0  0  0  0
 45 47  1  0  0  0  0
 46 45  1  0  0  0  0
 48 49  1  0  0  0  0
 48 50  1  0  0  0  0
 51 54  1  0  0  0  0
 51 48  1  0  0  0  0
 52 51  1  0  0  0  0
 53 51  1  0  0  0  0
 54 56  1  0  0  0  0
 55 54  1  0  0  0  0
 57 54  1  0  0  0  0
 57 59  1  0  0  0  0
 57 58  1  0  0  0  0
 60 57  1  0  0  0  0
 61 60  1  0  0  0  0
 62 60  1  0  0  0  0
 63 60  1  0  0  0  0
 63  3  1  0  0  0  0
 63 64  1  0  0  0  0
 65 63  1  0  0  0  0
M  END
