1,2,26
q = -2.0, confidence = 0.586

 51 56  0  0  0  0  0  0  0  0999 V2000
    0.0267    0.7488   -0.0008 N   0  0  0  0  0  2  0  0  0  0  0  0
   -2.0562   -0.9255    0.0147 C   0  0  0  0  0  3  0  0  0  0  0  0
   -2.3386    0.5054    0.0155 C   0  0  0  0  0  0  0  0  0  0  0  0
   -3.6394    1.0039    0.0246 C   0  0  0  0  0  0  0  0  0  0  0  0
   -3.8272    2.0895    0.0249 H   0  0  0  0  0  0  0  0  0  0  0  0
   -4.7640    0.1365    0.0338 C   0  0  0  0  0  0  0  0  0  0  0  0
   -4.5233   -1.2844    0.0328 C   0  0  0  0  0  0  0  0  0  0  0  0
   -3.1740   -1.7566    0.0232 C   0  0  0  0  0  0  0  0  0  0  0  0
   -3.0632   -2.8546    0.0232 H   0  0  0  0  0  0  0  0  0  0  0  0
   -6.1062    0.6165    0.0437 C   0  0  0  0  0  0  0  0  0  0  0  0
   -6.2797    1.7044    0.0449 H   0  0  0  0  0  0  0  0  0  0  0  0
   -7.1758   -0.2673    0.0521 C   0  0  0  0  0  0  0  0  0  0  0  0
   -8.2082    0.1136    0.0599 H   0  0  0  0  0  0  0  0  0  0  0  0
   -6.9409   -1.6692    0.0509 C   0  0  0  0  0  0  0  0  0  0  0  0
   -7.7950   -2.3637    0.0577 H   0  0  0  0  0  0  0  0  0  0  0  0
   -5.6438   -2.1643    0.0416 C   0  0  0  0  0  0  0  0  0  0  0  0
   -5.4629   -3.2512    0.0408 H   0  0  0  0  0  0  0  0  0  0  0  0
   -1.1694    1.4007    0.0046 C   0  0  0  0  0  0  0  0  0  0  0  0
   -1.1782    2.8045    0.0054 C   0  0  0  0  0  0  0  0  0  0  0  0
   -2.1357    3.3393    0.0416 H   0  0  0  0  0  0  0  0  0  0  0  0
    0.0349    3.5259   -0.0004 C   0  0  0  0  0  0  0  0  0  0  0  0
    1.2436    2.7994   -0.0066 C   0  0  0  0  0  0  0  0  0  0  0  0
    2.2054    3.3270   -0.0422 H   0  0  0  0  0  0  0  0  0  0  0  0
    1.2291    1.3952   -0.0061 C   0  0  0  0  0  0  0  0  0  0  0  0
    2.3853    0.4910   -0.0170 C   0  0  0  0  0  0  0  0  0  0  0  0
    2.0754   -0.9289   -0.0151 C   0  0  0  0  0  2  0  0  0  0  0  0
    3.1480   -1.8133   -0.0233 C   0  0  0  0  0  0  0  0  0  0  0  0
    2.9500   -2.8974   -0.0221 H   0  0  0  0  0  0  0  0  0  0  0  0
    4.5064   -1.3699   -0.0336 C   0  0  0  0  0  0  0  0  0  0  0  0
    4.7928    0.0453   -0.0357 C   0  0  0  0  0  0  0  0  0  0  0  0
    3.7005    0.9531   -0.0269 C   0  0  0  0  0  0  0  0  0  0  0  0
    3.9220    2.0326   -0.0284 H   0  0  0  0  0  0  0  0  0  0  0  0
    5.6001   -2.2839   -0.0420 C   0  0  0  0  0  0  0  0  0  0  0  0
    5.3809   -3.3631   -0.0403 H   0  0  0  0  0  0  0  0  0  0  0  0
    6.9119   -1.8294   -0.0521 C   0  0  0  0  0  0  0  0  0  0  0  0
    7.7441   -2.5501   -0.0585 H   0  0  0  0  0  0  0  0  0  0  0  0
    7.1910   -0.4351   -0.0544 C   0  0  0  0  0  0  0  0  0  0  0  0
    8.2350   -0.0869   -0.0627 H   0  0  0  0  0  0  0  0  0  0  0  0
    6.1504    0.4822   -0.0464 C   0  0  0  0  0  0  0  0  0  0  0  0
    6.3588    1.5641   -0.0484 H   0  0  0  0  0  0  0  0  0  0  0  0
    0.0376    5.0093    0.0001 C   0  0  0  0  0  0  0  0  0  0  0  0
   -0.9671    5.7357   -0.6788 C   0  0  0  0  0  0  0  0  0  0  0  0
   -1.7439    5.1932   -1.2383 H   0  0  0  0  0  0  0  0  0  0  0  0
   -0.9626    7.1367   -0.6803 C   0  0  0  0  0  0  0  0  0  0  0  0
   -1.7469    7.6836   -1.2251 H   0  0  0  0  0  0  0  0  0  0  0  0
    0.0429    7.8407    0.0014 C   0  0  0  0  0  0  0  0  0  0  0  0
    0.0451    8.9411    0.0018 H   0  0  0  0  0  0  0  0  0  0  0  0
    1.0458    7.1322    0.6822 C   0  0  0  0  0  0  0  0  0  0  0  0
    1.8324    7.6756    1.2272 H   0  0  0  0  0  0  0  0  0  0  0  0
    1.0451    5.7312    0.6795 C   0  0  0  0  0  0  0  0  0  0  0  0
    1.8201    5.1852    1.2379 H   0  0  0  0  0  0  0  0  0  0  0  0
  1 18  1  0  0  0  0
  2  3  2  0  0  0  0
  2  8  1  0  0  0  0
  3  4  1  0  0  0  0
  4  5  1  0  0  0  0
  4  6  2  0  0  0  0
  6 10  1  0  0  0  0
  7  6  1  0  0  0  0
  7 16  1  0  0  0  0
  8  7  2  0  0  0  0
  9  8  1  0  0  0  0
 10 11  1  0  0  0  0
 10 12  2  0  0  0  0
 12 13  1  0  0  0  0
 14 12  1  0  0  0  0
 14 15  1  0  0  0  0
 16 14  2  0  0  0  0
 17 16  1  0  0  0  0
 18 19  2  0  0  0  0
 18  3  1  0  0  0  0
 19 20  1  0  0  0  0
 21 41  1  0  0  0  0
 21 19  1  0  0  0  0
 22 24  1  0  0  0  0
 22 21  2  0  0  0  0
 23 22  1  0  0  0  0
 24  1  1  0  0  0  0
 25 26  1  0  0  0  0
 25 24  2  0  0  0  0
 27 28  1  0  0  0  0
 27 26  1  0  0  0  0
 29 27  2  0  0  0  0
 30 29  1  0  0  0  0
 30 31  2  0  0  0  0
 31 25  1  0  0  0  0
 32 31  1  0  0  0  0
 33 34  1  0  0  0  0
 33 29  1  0  0  0  0
 35 33  2  0  0  0  0
 36 35  1  0  0  0  0
 37 35  1  0  0  0  0
 37 39  2  0  0  0  0
 38 37  1  0  0  0  0
 39 30  1  0  0  0  0
 40 39  1  0  0  0  0
 41 50  1  0  0  0  0
 42 41  2  0  0  0  0
 43 42  1  0  0  0  0
 44 42  1  0  0  0  0
 44 46  2  0  0  0  0
 45 44  1  0  0  0  0
 46 47  1  0  0  0  0
 46 48  1  0  0  0  0
 48 49  1  0  0  0  0
 50 48  2  0  0  0  0
 50 51  1  0  0  0  0
M  END
