5,40,43
q = -1.0, confidence = 0.074

 51 54  0  0  1  0  0  0  0  0999 V2000
   -1.1810   -1.9566   -0.8212 S   0  0  0  0  0  0  0  0  0  0  0  0
   -0.8359   -3.3924   -0.6874 O   0  0  0  0  0  0  0  0  0  0  0  0
   -1.1913   -1.4367   -2.2258 O   0  0  0  0  0  0  0  0  0  0  0  0
    0.8227    1.1808    1.2003 N   0  0  0  0  0  0  0  0  0  0  0  0
   -0.2999   -0.9907    0.2069 N   0  0  0  0  0  2  0  0  0  0  0  0
   -2.7360   -1.5460   -0.0271 C   0  0  0  0  0  0  0  0  0  0  0  0
   -4.0050   -1.9988   -0.4013 C   0  0  0  0  0  0  0  0  0  0  0  0
   -4.1271   -2.6996   -1.2401 H   0  0  0  0  0  0  0  0  0  0  0  0
   -5.1050   -1.5221    0.3274 C   0  0  0  0  0  0  0  0  0  0  0  0
   -6.1204   -1.8529    0.0622 H   0  0  0  0  0  0  0  0  0  0  0  0
   -4.9188   -0.6223    1.3950 C   0  0  0  0  0  0  0  0  0  0  0  0
   -5.7926   -0.2557    1.9543 H   0  0  0  0  0  0  0  0  0  0  0  0
   -3.6330   -0.1874    1.7563 C   0  0  0  0  0  0  0  0  0  0  0  0
   -3.4980    0.5130    2.5948 H   0  0  0  0  0  0  0  0  0  0  0  0
   -2.5266   -0.6550    1.0324 C   0  0  0  0  0  0  0  0  0  0  0  0
   -1.0645   -0.3434    1.2534 C   0  0  2  0  0  0  0  0  0  0  0  0
   -0.7467   -0.7502    2.2450 H   0  0  0  0  0  0  0  0  0  0  0  0
   -0.6826    1.1640    1.2563 C   0  0  2  0  0  0  0  0  0  0  0  0
   -0.9777    1.5965    2.2382 H   0  0  0  0  0  0  0  0  0  0  0  0
   -1.3310    2.0107    0.1825 C   0  0  0  0  0  0  0  0  0  0  0  0
   -1.9962    3.1944    0.5628 C   0  0  0  0  0  0  0  0  0  0  0  0
   -2.0294    3.4751    1.6283 H   0  0  0  0  0  0  0  0  0  0  0  0
   -2.6155    4.0160   -0.3904 C   0  0  0  0  0  0  0  0  0  0  0  0
   -3.1295    4.9353   -0.0708 H   0  0  0  0  0  0  0  0  0  0  0  0
   -2.5823    3.6592   -1.7474 C   0  0  0  0  0  0  0  0  0  0  0  0
   -3.0704    4.2976   -2.4996 H   0  0  0  0  0  0  0  0  0  0  0  0
   -1.9324    2.4772   -2.1357 C   0  0  0  0  0  0  0  0  0  0  0  0
   -1.9197    2.1738   -3.1937 H   0  0  0  0  0  0  0  0  0  0  0  0
   -1.3057    1.6589   -1.1838 C   0  0  0  0  0  0  0  0  0  0  0  0
   -0.8386    0.7198   -1.5049 H   0  0  0  0  0  0  0  0  0  0  0  0
    1.4078    2.5261    1.0360 C   0  0  0  0  0  0  0  0  0  0  0  0
    1.0608    3.1676    1.8775 H   0  0  0  0  0  0  0  0  0  0  0  0
    0.9942    2.9746    0.1102 H   0  0  0  0  0  0  0  0  0  0  0  0
    2.9380    2.5210    0.9931 C   0  0  0  0  0  0  0  0  0  0  0  0
    3.3303    1.8455    1.7842 H   0  0  0  0  0  0  0  0  0  0  0  0
    3.2875    3.5413    1.2544 H   0  0  0  0  0  0  0  0  0  0  0  0
    3.5332    2.1402   -0.3752 C   0  0  0  0  0  0  0  0  0  0  0  0
    3.1647    2.8531   -1.1416 H   0  0  0  0  0  0  0  0  0  0  0  0
    4.6359    2.2603   -0.3367 H   0  0  0  0  0  0  0  0  0  0  0  0
    3.2092    0.7291   -0.8135 C   0  0  1  0  0  3  0  0  0  0  0  0
    3.8353   -0.3839   -0.1701 C   0  0  0  0  0  3  0  0  0  0  0  0
    4.5629   -0.2106    0.6354 H   0  0  0  0  0  0  0  0  0  0  0  0
    3.3785   -1.7185   -0.4330 C   0  0  0  0  0  3  0  0  0  0  0  0
    3.7509   -2.5443    0.1897 H   0  0  0  0  0  0  0  0  0  0  0  0
    2.3482   -1.9657   -1.3843 C   0  0  0  0  0  3  0  0  0  0  0  0
    1.9245   -2.9722   -1.5061 H   0  0  0  0  0  0  0  0  0  0  0  0
    1.7587   -0.8499   -2.0816 C   0  0  0  0  0  0  0  0  0  0  0  0
    0.8834   -1.0235   -2.7249 H   0  0  0  0  0  0  0  0  0  0  0  0
    2.1828    0.4791   -1.8029 C   0  0  0  0  0  0  0  0  0  0  0  0
    1.6622    1.3261   -2.2746 H   0  0  0  0  0  0  0  0  0  0  0  0
    1.1527    0.7758    2.1037 H   0  0  0  0  0  0  0  0  0  0  0  0
  1  2  2  0  0  0  0
  1  6  1  0  0  0  0
  1  5  1  0  0  0  0
  3  1  2  0  0  0  0
  4 18  1  0  0  0  0
  4 51  1  0  0  0  0
  5 16  1  0  0  0  0
  6 15  1  0  0  0  0
  7  6  2  0  0  0  0
  7  9  1  0  0  0  0
  8  7  1  0  0  0  0
  9 11  2  0  0  0  0
 10  9  1  0  0  0  0
 11 13  1  0  0  0  0
 11 12  1  0  0  0  0
 13 14  1  0  0  0  0
 15 16  1  0  0  0  0
 15 13  2  0  0  0  0
 16 18  1  0  0  0  0
 16 17  1  1  0  0  0
 18 19  1  1  0  0  0
 20 21  1  0  0  0  0
 20 18  1  0  0  0  0
 21 22  1  0  0  0  0
 23 24  1  0  0  0  0
 23 21  2  0  0  0  0
 25 23  1  0  0  0  0
 26 25  1  0  0  0  0
 27 25  2  0  0  0  0
 27 29  1  0  0  0  0
 28 27  1  0  0  0  0
 29 20  2  0  0  0  0
 30 29  1  0  0  0  0
 31  4  1  0  0  0  0
 31 32  1  0  0  0  0
 33 31  1  0  0  0  0
 34 31  1  0  0  0  0
 34 36  1  0  0  0  0
 34 35  1  0  0  0  0
 37 39  1  0  0  0  0
 37 34  1  0  0  0  0
 38 37  1  0  0  0  0
 40 37  1  1  0  0  0
 40 41  1  0  0  0  0
 41 42  1  0  0  0  0
 43 41  1  0  0  0  0
 43 44  1  0  0  0  0
 45 43  1  0  0  0  0
 46 45  1  0  0  0  0
 47 49  2  0  0  0  0
 47 45  1  0  0  0  0
 48 47  1  0  0  0  0
 49 40  1  0  0  0  0
 50 49  1  0  0  0  0
M  END
