2,15,17
q = -2.0, confidence = 0.954

 33 34  0  0  0  0  0  0  0  0999 V2000
   -0.7062   -1.4022   -0.3983 S   0  0  0  0  0  0  0  0  0  0  0  0
    0.2979   -0.6772    0.7050 N   0  0  0  0  0  2  0  0  0  0  0  0
   -0.9216   -2.8382   -0.1321 O   0  0  0  0  0  0  0  0  0  0  0  0
   -2.2833   -0.5711   -0.2432 C   0  0  0  0  0  0  0  0  0  0  0  0
   -0.0316   -0.9221   -1.6535 O   0  0  0  0  0  0  0  0  0  0  0  0
   -2.4058    0.7543   -0.6969 C   0  0  0  0  0  0  0  0  0  0  0  0
   -3.6342    1.4023   -0.5391 C   0  0  0  0  0  0  0  0  0  0  0  0
   -4.7409    0.7521    0.0549 C   0  0  0  0  0  0  0  0  0  0  0  0
   -4.5821   -0.5785    0.4918 C   0  0  0  0  0  0  0  0  0  0  0  0
   -3.3593   -1.2493    0.3460 C   0  0  0  0  0  0  0  0  0  0  0  0
   -6.0595    1.4673    0.1931 C   0  0  0  0  0  0  0  0  0  0  0  0
    0.1677   -0.9590    2.1309 C   0  0  0  0  0  0  0  0  0  0  0  0
    0.8843    0.1965    2.8460 C   0  0  0  0  0  0  0  0  0  0  0  0
    2.0404    0.6232    1.9835 C   0  0  0  0  0  0  0  0  0  0  0  0
    3.1123   -0.2170    1.5381 C   0  0  0  0  0  3  0  0  0  0  0  0
    3.8979    0.5191    0.6071 C   0  0  0  0  0  3  0  0  0  0  0  0
    3.2972    1.7941    0.4365 C   0  0  0  0  0  3  0  0  0  0  0  0
    2.1533    1.8593    1.2886 C   0  0  0  0  0  0  0  0  0  0  0  0
   -1.5465    1.2567   -1.1672 H   0  0  0  0  0  0  0  0  0  0  0  0
   -3.7435    2.4396   -0.8929 H   0  0  0  0  0  0  0  0  0  0  0  0
   -5.4350   -1.1025    0.9507 H   0  0  0  0  0  0  0  0  0  0  0  0
   -3.2296   -2.2924    0.6688 H   0  0  0  0  0  0  0  0  0  0  0  0
   -6.5200    1.6430   -0.8021 H   0  0  0  0  0  0  0  0  0  0  0  0
   -5.9309    2.4627    0.6651 H   0  0  0  0  0  0  0  0  0  0  0  0
   -6.7807    0.8871    0.7998 H   0  0  0  0  0  0  0  0  0  0  0  0
    0.6340   -1.9409    2.3708 H   0  0  0  0  0  0  0  0  0  0  0  0
   -0.9013   -1.0284    2.4332 H   0  0  0  0  0  0  0  0  0  0  0  0
    0.1934    1.0534    2.9703 H   0  0  0  0  0  0  0  0  0  0  0  0
    1.2226   -0.1117    3.8568 H   0  0  0  0  0  0  0  0  0  0  0  0
    3.2743   -1.2631    1.8267 H   0  0  0  0  0  0  0  0  0  0  0  0
    4.7686    0.1395    0.0626 H   0  0  0  0  0  0  0  0  0  0  0  0
    3.6233    2.5746   -0.2600 H   0  0  0  0  0  0  0  0  0  0  0  0
    1.4396    2.6895    1.3448 H   0  0  0  0  0  0  0  0  0  0  0  0
  1  4  1  0  0  0  0
  1  3  2  0  0  0  0
  1  2  1  0  0  0  0
  2 12  1  0  0  0  0
  4 10  1  0  0  0  0
  5  1  2  0  0  0  0
  6  7  1  0  0  0  0
  6  4  2  0  0  0  0
  7  8  2  0  0  0  0
  8 11  1  0  0  0  0
  8  9  1  0  0  0  0
  9 21  1  0  0  0  0
 10  9  2  0  0  0  0
 10 22  1  0  0  0  0
 11 24  1  0  0  0  0
 11 25  1  0  0  0  0
 12 26  1  0  0  0  0
 12 27  1  0  0  0  0
 12 13  1  0  0  0  0
 13 28  1  0  0  0  0
 13 29  1  0  0  0  0
 14 13  1  0  0  0  0
 15 30  1  0  0  0  0
 15 14  1  0  0  0  0
 16 15  1  0  0  0  0
 17 16  1  0  0  0  0
 17 18  1  0  0  0  0
 18 33  1  0  0  0  0
 18 14  2  0  0  0  0
 19  6  1  0  0  0  0
 20  7  1  0  0  0  0
 23 11  1  0  0  0  0
 31 16  1  0  0  0  0
 32 17  1  0  0  0  0
M  END
