1,12,14
q = -1.0, confidence = 0.0

 35 36  0  0  1  0  0  0  0  0999 V2000
    1.2472    1.4099   -0.4711 N   0  0  0  0  0  2  0  0  0  0  0  0
    2.5740    1.5179    1.9381 S   0  0  0  0  0  0  0  0  0  0  0  0
    1.8819    2.1917    0.4469 C   0  0  2  0  0  3  0  0  0  0  0  0
    2.0022    3.5847    0.2710 C   0  0  0  0  0  0  0  0  0  0  0  0
    2.5181    4.1703    1.0443 H   0  0  0  0  0  0  0  0  0  0  0  0
    1.4934    4.1850   -0.8844 C   0  0  0  0  0  0  0  0  0  0  0  0
    1.5756    5.2725   -1.0298 H   0  0  0  0  0  0  0  0  0  0  0  0
    0.9091    3.3643   -1.8575 C   0  0  0  0  0  0  0  0  0  0  0  0
    0.5105    3.7724   -2.7969 H   0  0  0  0  0  0  0  0  0  0  0  0
    0.8090    1.9927   -1.6126 C   0  0  0  0  0  0  0  0  0  0  0  0
    0.2947    1.3109   -2.3108 H   0  0  0  0  0  0  0  0  0  0  0  0
    2.7911   -0.8897    0.5288 C   0  0  1  0  0  3  0  0  0  0  0  0
    1.8882   -1.8224    1.1446 C   0  0  1  0  0  3  0  0  0  0  0  0
    1.2325   -2.5627    0.0904 C   0  0  1  0  0  3  0  0  0  0  0  0
    1.7981   -2.1257   -1.1774 C   0  0  0  0  0  0  0  0  0  0  0  0
    2.7385   -1.0773   -0.9156 C   0  0  0  0  0  0  0  0  0  0  0  0
    3.5967    0.1425    1.2435 C   0  0  0  0  0  0  0  0  0  0  0  0
    4.3797    0.5786    0.5944 H   0  0  0  0  0  0  0  0  0  0  0  0
    4.0968   -0.2771    2.1401 H   0  0  0  0  0  0  0  0  0  0  0  0
    1.7085   -2.0200    2.6133 C   0  0  0  0  0  0  0  0  0  0  0  0
    2.4527   -2.7571    2.9854 H   0  0  0  0  0  0  0  0  0  0  0  0
    0.6950   -2.3918    2.8497 H   0  0  0  0  0  0  0  0  0  0  0  0
    1.8471   -1.0734    3.1708 H   0  0  0  0  0  0  0  0  0  0  0  0
    0.2460   -3.6687    0.2611 C   0  0  0  0  0  0  0  0  0  0  0  0
   -0.5061   -3.6519   -0.5504 H   0  0  0  0  0  0  0  0  0  0  0  0
   -0.2951   -3.5785    1.2209 H   0  0  0  0  0  0  0  0  0  0  0  0
    0.7561   -4.6562    0.2436 H   0  0  0  0  0  0  0  0  0  0  0  0
    1.4875   -2.7280   -2.5086 C   0  0  0  0  0  0  0  0  0  0  0  0
    1.7898   -2.0679   -3.3433 H   0  0  0  0  0  0  0  0  0  0  0  0
    0.4048   -2.9359   -2.6128 H   0  0  0  0  0  0  0  0  0  0  0  0
    2.0330   -3.6893   -2.6210 H   0  0  0  0  0  0  0  0  0  0  0  0
    3.5532   -0.3432   -1.9317 C   0  0  0  0  0  0  0  0  0  0  0  0
    4.5161   -0.8654   -2.1178 H   0  0  0  0  0  0  0  0  0  0  0  0
    3.7892    0.6883   -1.6065 H   0  0  0  0  0  0  0  0  0  0  0  0
    3.0209   -0.2720   -2.8997 H   0  0  0  0  0  0  0  0  0  0  0  0
  1  3  1  0  0  0  0
  3  2  1  1  0  0  0
  4  3  1  0  0  0  0
  4  5  1  0  0  0  0
  6  4  2  0  0  0  0
  7  6  1  0  0  0  0
  8 10  2  0  0  0  0
  8  6  1  0  0  0  0
  9  8  1  0  0  0  0
 10  1  1  0  0  0  0
 11 10  1  0  0  0  0
 12 13  1  0  0  0  0
 12 17  1  6  0  0  0
 13 20  1  1  0  0  0
 14 24  1  1  0  0  0
 14 13  1  0  0  0  0
 15 16  2  0  0  0  0
 15 14  1  0  0  0  0
 16 12  1  0  0  0  0
 17  2  1  0  0  0  0
 17 19  1  0  0  0  0
 18 17  1  0  0  0  0
 20 22  1  0  0  0  0
 20 21  1  0  0  0  0
 20 23  1  0  0  0  0
 24 26  1  0  0  0  0
 25 24  1  0  0  0  0
 27 24  1  0  0  0  0
 28 15  1  0  0  0  0
 29 28  1  0  0  0  0
 30 28  1  0  0  0  0
 31 28  1  0  0  0  0
 32 34  1  0  0  0  0
 32 16  1  0  0  0  0
 33 32  1  0  0  0  0
 35 32  1  0  0  0  0
M  END
