2,4,6
q = -1.0, confidence = 0.156

 54 56  0  0  1  0  0  0  0  0999 V2000
   -0.5930   -0.1542   -2.9038 O   0  0  0  0  0  0  0  0  0  0  0  0
    2.2520    0.7118   -0.2020 N   0  0  0  0  0  2  0  0  0  0  0  0
    2.0335   -1.8999   -1.3443 N   0  0  0  0  0  0  0  0  0  0  0  0
   -0.4766   -0.1195   -1.6848 C   0  0  0  0  0  3  0  0  0  0  0  0
   -1.3836    0.2685   -0.5706 C   0  0  1  0  0  3  0  0  0  0  0  0
   -0.5857    1.1771    0.2557 C   0  0  1  0  0  3  0  0  0  0  0  0
   -0.1513    2.4814   -0.3181 C   0  0  0  0  0  0  0  0  0  0  0  0
   -1.1693    3.3634   -0.7328 C   0  0  0  0  0  0  0  0  0  0  0  0
   -0.8831    4.6697   -1.1542 C   0  0  0  0  0  0  0  0  0  0  0  0
    0.4466    5.1256   -1.1781 C   0  0  0  0  0  0  0  0  0  0  0  0
    1.4765    4.2494   -0.8298 C   0  0  0  0  0  0  0  0  0  0  0  0
    1.2024    2.9177   -0.4257 C   0  0  0  0  0  0  0  0  0  0  0  0
    2.3266    2.0091   -0.3358 C   0  0  0  0  0  3  0  0  0  0  0  0
    3.4671   -0.0591   -0.4623 C   0  0  0  0  0  0  0  0  0  0  0  0
    3.1614   -0.9717   -1.6487 C   0  0  0  0  0  0  0  0  0  0  0  0
    2.5592   -3.1173   -0.6676 C   0  0  0  0  0  0  0  0  0  0  0  0
    1.3995   -2.3421   -2.6124 C   0  0  0  0  0  0  0  0  0  0  0  0
   -2.7930   -0.1090   -0.4316 C   0  0  0  0  0  0  0  0  0  0  0  0
   -3.3761   -1.0763   -1.2880 C   0  0  0  0  0  0  0  0  0  0  0  0
   -4.7357   -1.3923   -1.1886 C   0  0  0  0  0  0  0  0  0  0  0  0
   -5.5499   -0.7558   -0.2358 C   0  0  0  0  0  0  0  0  0  0  0  0
   -4.9884    0.2119    0.6128 C   0  0  0  0  0  0  0  0  0  0  0  0
   -3.6288    0.5369    0.5136 C   0  0  0  0  0  0  0  0  0  0  0  0
   -0.3046    0.8411    1.6574 C   0  0  0  0  0  0  0  0  0  0  0  0
    0.6029    1.5886    2.4863 C   0  0  0  0  0  0  0  0  0  0  0  0
    1.0581    1.0644    3.6809 C   0  0  0  0  0  0  0  0  0  0  0  0
    0.6230   -0.2181    4.1254 C   0  0  0  0  0  0  0  0  0  0  0  0
   -0.3207   -0.9186    3.3965 C   0  0  0  0  0  0  0  0  0  0  0  0
   -0.8209   -0.4100    2.1589 C   0  0  0  0  0  0  0  0  0  0  0  0
   -2.2109    3.0111   -0.6911 H   0  0  0  0  0  0  0  0  0  0  0  0
   -1.7034    5.3394   -1.4534 H   0  0  0  0  0  0  0  0  0  0  0  0
    0.6782    6.1544   -1.4914 H   0  0  0  0  0  0  0  0  0  0  0  0
    2.5261    4.5767   -0.9009 H   0  0  0  0  0  0  0  0  0  0  0  0
    3.3231    2.4560   -0.5313 H   0  0  0  0  0  0  0  0  0  0  0  0
    3.7053   -0.6555    0.4412 H   0  0  0  0  0  0  0  0  0  0  0  0
    4.3272    0.6012   -0.7064 H   0  0  0  0  0  0  0  0  0  0  0  0
    2.8531   -0.3445   -2.5083 H   0  0  0  0  0  0  0  0  0  0  0  0
    4.0614   -1.5538   -1.9501 H   0  0  0  0  0  0  0  0  0  0  0  0
    3.2229   -3.6660   -1.3714 H   0  0  0  0  0  0  0  0  0  0  0  0
    1.7123   -3.7693   -0.3864 H   0  0  0  0  0  0  0  0  0  0  0  0
    3.0984   -2.8487    0.2533 H   0  0  0  0  0  0  0  0  0  0  0  0
    2.1557   -2.8453   -3.2555 H   0  0  0  0  0  0  0  0  0  0  0  0
    0.9409   -1.4835   -3.1363 H   0  0  0  0  0  0  0  0  0  0  0  0
    0.5954   -3.0622   -2.3742 H   0  0  0  0  0  0  0  0  0  0  0  0
   -2.7466   -1.5741   -2.0392 H   0  0  0  0  0  0  0  0  0  0  0  0
   -5.1672   -2.1470   -1.8640 H   0  0  0  0  0  0  0  0  0  0  0  0
   -6.6181   -1.0091   -0.1596 H   0  0  0  0  0  0  0  0  0  0  0  0
   -5.6168    0.7242    1.3579 H   0  0  0  0  0  0  0  0  0  0  0  0
   -3.1972    1.3081    1.1702 H   0  0  0  0  0  0  0  0  0  0  0  0
    0.9344    2.5814    2.1509 H   0  0  0  0  0  0  0  0  0  0  0  0
    1.7577    1.6466    4.2998 H   0  0  0  0  0  0  0  0  0  0  0  0
    1.0025   -0.6238    5.0751 H   0  0  0  0  0  0  0  0  0  0  0  0
   -0.7226   -1.8710    3.7732 H   0  0  0  0  0  0  0  0  0  0  0  0
   -1.7801   -0.7925    1.7907 H   0  0  0  0  0  0  0  0  0  0  0  0
  1  4  2  0  0  0  0
  3 16  1  0  0  0  0
  5  4  1  6  0  0  0
  5 18  1  0  0  0  0
  6  5  1  1  0  0  0
  6 24  1  0  0  0  0
  7  6  1  0  0  0  0
  8 30  1  0  0  0  0
  8  7  2  0  0  0  0
  9  8  1  0  0  0  0
 10  9  2  0  0  0  0
 10 11  1  0  0  0  0
 11 12  2  0  0  0  0
 12 13  1  0  0  0  0
 12  7  1  0  0  0  0
 13  2  1  0  0  0  0
 14  2  1  0  0  0  0
 14 35  1  0  0  0  0
 15  3  1  0  0  0  0
 15 14  1  0  0  0  0
 16 40  1  0  0  0  0
 16 41  1  0  0  0  0
 17 44  1  0  0  0  0
 17  3  1  0  0  0  0
 18 23  1  0  0  0  0
 19 20  1  0  0  0  0
 19 18  2  0  0  0  0
 20 21  2  0  0  0  0
 21 47  1  0  0  0  0
 21 22  1  0  0  0  0
 22 48  1  0  0  0  0
 23 22  2  0  0  0  0
 23 49  1  0  0  0  0
 24 29  2  0  0  0  0
 24 25  1  0  0  0  0
 25 26  2  0  0  0  0
 26 27  1  0  0  0  0
 26 51  1  0  0  0  0
 27 52  1  0  0  0  0
 28 53  1  0  0  0  0
 28 27  2  0  0  0  0
 29 28  1  0  0  0  0
 31  9  1  0  0  0  0
 32 10  1  0  0  0  0
 33 11  1  0  0  0  0
 34 13  1  0  0  0  0
 36 14  1  0  0  0  0
 37 15  1  0  0  0  0
 38 15  1  0  0  0  0
 39 16  1  0  0  0  0
 42 17  1  0  0  0  0
 43 17  1  0  0  0  0
 45 19  1  0  0  0  0
 46 20  1  0  0  0  0
 50 25  1  0  0  0  0
 54 29  1  0  0  0  0
M  END
