4,8,29
q = 0.0, confidence = 1.0

 35 37  0  0  1  0  0  0  0  0999 V2000
    3.0677   -0.8857    0.6399 N   0  0  0  0  0  0  0  0  0  0  0  0
    2.6338    0.6646   -0.7580 N   0  0  0  0  0  0  0  0  0  0  0  0
    4.2811   -0.3559    0.2984 N   0  0  0  0  0  0  0  0  0  0  0  0
   -0.0006    1.7307    0.0001 N   0  0  0  0  0  2  0  0  0  0  0  0
   -3.0671   -0.8879   -0.6398 N   0  0  0  0  0  0  0  0  0  0  0  0
   -2.6342    0.6626    0.7583 N   0  0  0  0  0  0  0  0  0  0  0  0
   -4.2809   -0.3590   -0.2981 N   0  0  0  0  0  0  0  0  0  0  0  0
    2.0268   -0.2939    0.0133 C   0  0  0  0  0  2  0  0  0  0  0  0
    3.9960    0.5949   -0.5569 C   0  0  0  0  0  0  0  0  0  0  0  0
    4.7332    1.2365   -1.0544 H   0  0  0  0  0  0  0  0  0  0  0  0
    3.0358   -1.9595    1.6239 C   0  0  0  0  0  0  0  0  0  0  0  0
    1.9930   -2.3034    1.7311 H   0  0  0  0  0  0  0  0  0  0  0  0
    3.4365   -1.5832    2.5841 H   0  0  0  0  0  0  0  0  0  0  0  0
    3.6663   -2.7941    1.2659 H   0  0  0  0  0  0  0  0  0  0  0  0
    1.8778    1.6023   -1.5821 C   0  0  0  0  0  0  0  0  0  0  0  0
    1.3233    1.0285   -2.3550 H   0  0  0  0  0  0  0  0  0  0  0  0
    2.5899    2.2715   -2.0975 H   0  0  0  0  0  0  0  0  0  0  0  0
    0.9015    2.4133   -0.7535 C   0  0  1  0  0  3  0  0  0  0  0  0
    0.9248    3.8149   -0.7696 C   0  0  0  0  0  0  0  0  0  0  0  0
    1.6687    4.3391   -1.3863 H   0  0  0  0  0  0  0  0  0  0  0  0
   -0.0021    4.5285   -0.0003 C   0  0  0  0  0  0  0  0  0  0  0  0
   -0.0027    5.6282   -0.0005 H   0  0  0  0  0  0  0  0  0  0  0  0
   -0.9281    3.8142    0.7693 C   0  0  0  0  0  0  0  0  0  0  0  0
   -1.6726    4.3377    1.3859 H   0  0  0  0  0  0  0  0  0  0  0  0
   -0.9034    2.4126    0.7536 C   0  0  0  0  0  0  0  0  0  0  0  0
   -1.8788    1.6007    1.5824 C   0  0  0  0  0  0  0  0  0  0  0  0
   -1.3236    1.0271    2.3550 H   0  0  0  0  0  0  0  0  0  0  0  0
   -2.5912    2.2692    2.0982 H   0  0  0  0  0  0  0  0  0  0  0  0
   -2.0266   -0.2954   -0.0132 C   0  0  0  0  0  2  0  0  0  0  0  0
   -3.9964    0.5918    0.5574 C   0  0  0  0  0  0  0  0  0  0  0  0
   -4.7340    1.2327    1.0551 H   0  0  0  0  0  0  0  0  0  0  0  0
   -3.0345   -1.9611   -1.6243 C   0  0  0  0  0  0  0  0  0  0  0  0
   -1.9919   -2.3065   -1.7292 H   0  0  0  0  0  0  0  0  0  0  0  0
   -3.4323   -1.5838   -2.5854 H   0  0  0  0  0  0  0  0  0  0  0  0
   -3.6671   -2.7949   -1.2682 H   0  0  0  0  0  0  0  0  0  0  0  0
  1 11  1  0  0  0  0
  2  9  1  0  0  0  0
  2  8  1  0  0  0  0
  3  1  1  0  0  0  0
  4 25  1  0  0  0  0
  5  7  1  0  0  0  0
  5 29  1  0  0  0  0
  6 26  1  0  0  0  0
  7 30  2  0  0  0  0
  8  1  1  0  0  0  0
  9  3  2  0  0  0  0
 10  9  1  0  0  0  0
 11 12  1  0  0  0  0
 11 13  1  0  0  0  0
 14 11  1  0  0  0  0
 15  2  1  0  0  0  0
 16 15  1  0  0  0  0
 17 15  1  0  0  0  0
 18 15  1  6  0  0  0
 18  4  1  0  0  0  0
 19 18  1  0  0  0  0
 19 21  2  0  0  0  0
 20 19  1  0  0  0  0
 21 23  1  0  0  0  0
 22 21  1  0  0  0  0
 23 24  1  0  0  0  0
 25 23  2  0  0  0  0
 25 26  1  0  0  0  0
 26 28  1  0  0  0  0
 26 27  1  0  0  0  0
 29  6  1  0  0  0  0
 30  6  1  0  0  0  0
 30 31  1  0  0  0  0
 32 35  1  0  0  0  0
 32  5  1  0  0  0  0
 33 32  1  0  0  0  0
 34 32  1  0  0  0  0
M  END
