19,23,42
q = -1.0, confidence = 0.072

 55 57  0  0  1  0  0  0  0  0999 V2000
   -6.2337    0.5319   -1.4017 C   0  0  0  0  0  0  0  0  0  0  0  0
   -5.6579    1.4761   -1.4530 H   0  0  0  0  0  0  0  0  0  0  0  0
   -7.3167    0.7723   -1.4340 H   0  0  0  0  0  0  0  0  0  0  0  0
   -5.9846   -0.0682   -2.3006 H   0  0  0  0  0  0  0  0  0  0  0  0
   -6.2816    0.6116    1.1175 C   0  0  0  0  0  0  0  0  0  0  0  0
   -6.0597    0.0736    2.0617 H   0  0  0  0  0  0  0  0  0  0  0  0
   -7.3665    0.8448    1.0976 H   0  0  0  0  0  0  0  0  0  0  0  0
   -5.7155    1.5632    1.1266 H   0  0  0  0  0  0  0  0  0  0  0  0
   -5.8857   -0.2386   -0.1095 C   0  0  0  0  0  0  0  0  0  0  0  0
   -6.6672   -1.5609   -0.0816 C   0  0  0  0  0  0  0  0  0  0  0  0
   -6.4239   -2.2013   -0.9537 H   0  0  0  0  0  0  0  0  0  0  0  0
   -7.7564   -1.3551   -0.1123 H   0  0  0  0  0  0  0  0  0  0  0  0
   -6.4635   -2.1407    0.8415 H   0  0  0  0  0  0  0  0  0  0  0  0
   -4.3666   -0.4609   -0.0737 C   0  0  0  0  0  0  0  0  0  0  0  0
   -3.7545   -1.7243   -0.0075 C   0  0  0  0  0  0  0  0  0  0  0  0
   -4.3635   -2.6376    0.0193 H   0  0  0  0  0  0  0  0  0  0  0  0
   -2.3473   -1.8307    0.0269 C   0  0  0  0  0  0  0  0  0  0  0  0
   -1.8796   -2.8242    0.0839 H   0  0  0  0  0  0  0  0  0  0  0  0
   -1.5617   -0.6772   -0.0113 C   0  0  0  0  0  3  0  0  0  0  0  0
   -2.2967    0.5361   -0.0817 C   0  0  0  0  0  0  0  0  0  0  0  0
   -3.6134    0.6642   -0.1092 N   0  0  0  0  0  0  0  0  0  0  0  0
   -1.4905    1.7083   -0.1160 N   0  0  0  0  0  0  0  0  0  0  0  0
   -0.1686    1.4604   -0.0698 C   0  0  0  0  0  2  0  0  0  0  0  0
   -2.0660    3.0476   -0.1593 C   0  0  0  0  0  0  0  0  0  0  0  0
   -3.0669    2.9873    0.3090 H   0  0  0  0  0  0  0  0  0  0  0  0
   -2.2164    3.3536   -1.2183 H   0  0  0  0  0  0  0  0  0  0  0  0
   -1.1187    3.9891    0.5708 C   0  0  0  0  0  0  0  0  0  0  0  0
   -1.0977    3.7221    1.6478 H   0  0  0  0  0  0  0  0  0  0  0  0
   -1.4692    5.0362    0.4888 H   0  0  0  0  0  0  0  0  0  0  0  0
    0.2922    3.8894   -0.0043 C   0  0  0  0  0  0  0  0  0  0  0  0
    0.3422    4.3401   -1.0203 H   0  0  0  0  0  0  0  0  0  0  0  0
    0.9985    4.4415    0.6454 H   0  0  0  0  0  0  0  0  0  0  0  0
    0.7292    2.4840   -0.0703 N   0  0  2  0  0  0  0  0  0  0  0  0
    2.1012    2.1662   -0.1476 C   0  0  2  0  0  3  0  0  0  0  0  0
    3.0327    3.2042   -0.3551 C   0  0  0  0  0  0  0  0  0  0  0  0
    2.7094    4.2414   -0.4947 H   0  0  0  0  0  0  0  0  0  0  0  0
    4.3838    2.8736   -0.4072 C   0  0  0  0  0  0  0  0  0  0  0  0
    5.1394    3.6559   -0.5727 H   0  0  0  0  0  0  0  0  0  0  0  0
    4.7632    1.5394   -0.2501 C   0  0  0  0  0  0  0  0  0  0  0  0
    5.8235    1.2692   -0.2776 H   0  0  0  0  0  0  0  0  0  0  0  0
    3.7856    0.5405   -0.0694 C   0  0  0  0  0  0  0  0  0  0  0  0
    2.4613    0.8606   -0.0323 N   0  0  0  0  0  2  0  0  0  0  0  0
    4.2191   -0.9285    0.0867 C   0  0  0  0  0  0  0  0  0  0  0  0
    3.7119   -1.7282   -1.1325 C   0  0  0  0  0  0  0  0  0  0  0  0
    2.6303   -1.5968   -1.3079 H   0  0  0  0  0  0  0  0  0  0  0  0
    3.9219   -2.8087   -0.9885 H   0  0  0  0  0  0  0  0  0  0  0  0
    4.2322   -1.3983   -2.0543 H   0  0  0  0  0  0  0  0  0  0  0  0
    3.6743   -1.4791    1.4207 C   0  0  0  0  0  0  0  0  0  0  0  0
    4.1650   -0.9736    2.2769 H   0  0  0  0  0  0  0  0  0  0  0  0
    3.8893   -2.5651    1.4959 H   0  0  0  0  0  0  0  0  0  0  0  0
    2.5876   -1.3264    1.5355 H   0  0  0  0  0  0  0  0  0  0  0  0
    5.7536   -1.0782    0.1265 C   0  0  0  0  0  0  0  0  0  0  0  0
    6.2374   -0.7516   -0.8160 H   0  0  0  0  0  0  0  0  0  0  0  0
    6.0005   -2.1498    0.2643 H   0  0  0  0  0  0  0  0  0  0  0  0
    6.2094   -0.5241    0.9718 H   0  0  0  0  0  0  0  0  0  0  0  0
  1  9  1  0  0  0  0
  2  1  1  0  0  0  0
  3  1  1  0  0  0  0
  4  1  1  0  0  0  0
  5  8  1  0  0  0  0
  5  6  1  0  0  0  0
  7  5  1  0  0  0  0
  9 10  1  0  0  0  0
  9 14  1  0  0  0  0
  9  5  1  0  0  0  0
 10 13  1  0  0  0  0
 11 10  1  0  0  0  0
 12 10  1  0  0  0  0
 14 15  1  0  0  0  0
 15 16  1  0  0  0  0
 15 17  2  0  0  0  0
 17 18  1  0  0  0  0
 19 17  1  0  0  0  0
 20 19  2  0  0  0  0
 21 20  1  0  0  0  0
 21 14  2  0  0  0  0
 22 20  1  0  0  0  0
 22 23  1  0  0  0  0
 24 22  1  0  0  0  0
 24 25  1  0  0  0  0
 24 27  1  0  0  0  0
 26 24  1  0  0  0  0
 27 28  1  0  0  0  0
 29 27  1  0  0  0  0
 30 27  1  0  0  0  0
 30 32  1  0  0  0  0
 31 30  1  0  0  0  0
 33 23  1  6  0  0  0
 33 30  1  0  0  0  0
 34 35  1  6  0  0  0
 34 33  1  0  0  0  0
 34 42  1  0  0  0  0
 36 35  1  0  0  0  0
 37 35  2  0  0  0  0
 37 39  1  0  0  0  0
 38 37  1  0  0  0  0
 39 41  2  0  0  0  0
 40 39  1  0  0  0  0
 41 42  1  0  0  0  0
 41 43  1  0  0  0  0
 43 52  1  0  0  0  0
 43 48  1  0  0  0  0
 44 46  1  0  0  0  0
 44 43  1  0  0  0  0
 45 44  1  0  0  0  0
 47 44  1  0  0  0  0
 48 50  1  0  0  0  0
 48 51  1  0  0  0  0
 48 49  1  0  0  0  0
 52 54  1  0  0  0  0
 52 55  1  0  0  0  0
 53 52  1  0  0  0  0
M  END
