2,3,16
q = -2.0, confidence = 0.692

 29 31  0  0  0  0  0  0  0  0999 V2000
   -3.4348   -3.2818    0.0001 F   0  0  0  0  0  0  0  0  0  0  0  0
    0.2380   -1.2691   -0.0002 N   0  0  0  0  0  2  0  0  0  0  0  0
   -1.9332    0.1154   -0.0000 C   0  0  0  0  0  3  0  0  0  0  0  0
   -2.0705   -1.3254   -0.0000 C   0  0  0  0  0  0  0  0  0  0  0  0
   -5.4984    0.9659    0.0004 F   0  0  0  0  0  0  0  0  0  0  0  0
    2.4774   -0.5625   -0.0002 C   0  0  0  0  0  0  0  0  0  0  0  0
    4.2108    1.6167    0.0005 C   0  0  0  0  0  0  0  0  0  0  0  0
    4.8792    2.4932    0.0009 H   0  0  0  0  0  0  0  0  0  0  0  0
   -4.3726    0.2231    0.0003 C   0  0  0  0  0  0  0  0  0  0  0  0
    2.8008    1.8209    0.0004 C   0  0  0  0  0  0  0  0  0  0  0  0
    2.4252    2.8579    0.0006 H   0  0  0  0  0  0  0  0  0  0  0  0
   -0.8300   -2.0434   -0.0001 C   0  0  0  0  0  3  0  0  0  0  0  0
   -0.7686   -3.1460   -0.0002 H   0  0  0  0  0  0  0  0  0  0  0  0
    4.3579   -2.1464   -0.0004 C   0  0  0  0  0  0  0  0  0  0  0  0
    5.4424   -2.3387   -0.0004 H   0  0  0  0  0  0  0  0  0  0  0  0
    1.8917    0.7553    0.0001 C   0  0  0  0  0  3  0  0  0  0  0  0
    3.8953   -0.7964   -0.0001 C   0  0  0  0  0  0  0  0  0  0  0  0
    1.5795   -1.6784   -0.0003 C   0  0  0  0  0  0  0  0  0  0  0  0
   -4.5170   -1.1783    0.0002 C   0  0  0  0  0  0  0  0  0  0  0  0
   -5.5072   -1.6511    0.0003 H   0  0  0  0  0  0  0  0  0  0  0  0
   -3.3475   -1.9329    0.0001 C   0  0  0  0  0  0  0  0  0  0  0  0
   -3.1290    0.8650    0.0001 C   0  0  0  0  0  0  0  0  0  0  0  0
   -3.1158    1.9658    0.0002 H   0  0  0  0  0  0  0  0  0  0  0  0
    2.0598   -2.9905   -0.0006 C   0  0  0  0  0  0  0  0  0  0  0  0
    1.3705   -3.8477   -0.0008 H   0  0  0  0  0  0  0  0  0  0  0  0
    3.4594   -3.2103   -0.0007 C   0  0  0  0  0  0  0  0  0  0  0  0
    3.8382   -4.2439   -0.0009 H   0  0  0  0  0  0  0  0  0  0  0  0
    4.7578    0.3397    0.0002 C   0  0  0  0  0  0  0  0  0  0  0  0
    5.8487    0.1904    0.0003 H   0  0  0  0  0  0  0  0  0  0  0  0
  1 21  1  0  0  0  0
  2 12  1  0  0  0  0
  3 22  1  0  0  0  0
  4  3  2  0  0  0  0
  4 21  1  0  0  0  0
  6 17  1  0  0  0  0
  6 16  1  0  0  0  0
  7  8  1  0  0  0  0
  9  5  1  0  0  0  0
 10  7  1  0  0  0  0
 10 11  1  0  0  0  0
 12  4  1  0  0  0  0
 13 12  1  0  0  0  0
 14 17  2  0  0  0  0
 15 14  1  0  0  0  0
 16 10  2  0  0  0  0
 17 28  1  0  0  0  0
 18  2  1  0  0  0  0
 18  6  2  0  0  0  0
 19  9  1  0  0  0  0
 19 20  1  0  0  0  0
 21 19  2  0  0  0  0
 22 23  1  0  0  0  0
 22  9  2  0  0  0  0
 24 18  1  0  0  0  0
 25 24  1  0  0  0  0
 26 24  2  0  0  0  0
 26 14  1  0  0  0  0
 27 26  1  0  0  0  0
 28 29  1  0  0  0  0
 28  7  2  0  0  0  0
M  END
