2,4,11
q = -2.0, confidence = 0.928

 34 33  0  0  0  0  0  0  0  0999 V2000
   -2.8009   -0.3063    0.1509 N   0  0  0  0  0  0  0  0  0  0  0  0
   -0.3146    2.2893    0.2520 N   0  0  0  0  0  0  0  0  0  0  0  0
    1.9085    2.8648   -0.4339 N   0  0  0  0  0  0  0  0  0  0  0  0
   -1.7606    0.4368    0.0243 C   0  0  0  0  0  3  0  0  0  0  0  0
   -1.6833    1.9417   -0.1969 C   0  0  0  0  0  0  0  0  0  0  0  0
   -1.7764    2.1751   -1.2770 H   0  0  0  0  0  0  0  0  0  0  0  0
   -2.4458    2.5675    0.3229 H   0  0  0  0  0  0  0  0  0  0  0  0
    0.5163    3.0627   -0.6983 C   0  0  0  0  0  0  0  0  0  0  0  0
    0.2213    2.6972   -1.7084 H   0  0  0  0  0  0  0  0  0  0  0  0
    0.2686    4.1516   -0.6611 H   0  0  0  0  0  0  0  0  0  0  0  0
    2.2611    1.5501    0.1002 C   0  0  0  0  0  3  0  0  0  0  0  0
    2.5389    1.6765    1.1761 H   0  0  0  0  0  0  0  0  0  0  0  0
    3.1933    1.1738   -0.3875 H   0  0  0  0  0  0  0  0  0  0  0  0
   -4.2209    0.1359    0.0802 C   0  0  0  0  0  0  0  0  0  0  0  0
   -4.5287    0.9268   -1.2064 C   0  0  0  0  0  0  0  0  0  0  0  0
   -5.6200    1.1031   -1.3009 H   0  0  0  0  0  0  0  0  0  0  0  0
   -4.2015    0.3532   -2.0973 H   0  0  0  0  0  0  0  0  0  0  0  0
   -4.0325    1.9154   -1.2281 H   0  0  0  0  0  0  0  0  0  0  0  0
   -4.5968    0.9595    1.3281 C   0  0  0  0  0  0  0  0  0  0  0  0
   -5.6764    1.2149    1.3123 H   0  0  0  0  0  0  0  0  0  0  0  0
   -4.0271    1.9068    1.3923 H   0  0  0  0  0  0  0  0  0  0  0  0
   -4.3977    0.3800    2.2511 H   0  0  0  0  0  0  0  0  0  0  0  0
   -5.0615   -1.1555    0.0737 C   0  0  0  0  0  0  0  0  0  0  0  0
   -6.1479   -0.9330    0.0518 H   0  0  0  0  0  0  0  0  0  0  0  0
   -4.8408   -1.7590    0.9765 H   0  0  0  0  0  0  0  0  0  0  0  0
   -4.8124   -1.7742   -0.8118 H   0  0  0  0  0  0  0  0  0  0  0  0
   -0.3218    2.9267    1.5664 C   0  0  0  0  0  0  0  0  0  0  0  0
    0.7128    3.0689    1.9215 H   0  0  0  0  0  0  0  0  0  0  0  0
   -0.8632    2.2978    2.2943 H   0  0  0  0  0  0  0  0  0  0  0  0
   -0.8217    3.9245    1.5193 H   0  0  0  0  0  0  0  0  0  0  0  0
    2.6936    3.9759    0.0492 C   0  0  0  0  0  0  0  0  0  0  0  0
    3.7587    3.8498   -0.2438 H   0  0  0  0  0  0  0  0  0  0  0  0
    2.6846    4.0849    1.1700 H   0  0  0  0  0  0  0  0  0  0  0  0
    2.3444    4.9340   -0.3891 H   0  0  0  0  0  0  0  0  0  0  0  0
  2 27  1  0  0  0  0
  3 31  1  0  0  0  0
  3 11  1  0  0  0  0
  4  1  2  0  0  0  0
  5  4  1  0  0  0  0
  5  2  1  0  0  0  0
  5  7  1  0  0  0  0
  6  5  1  0  0  0  0
  8 10  1  0  0  0  0
  8  3  1  0  0  0  0
  8  2  1  0  0  0  0
  9  8  1  0  0  0  0
 11 12  1  0  0  0  0
 13 11  1  0  0  0  0
 14  1  1  0  0  0  0
 14 19  1  0  0  0  0
 15 14  1  0  0  0  0
 16 15  1  0  0  0  0
 17 15  1  0  0  0  0
 18 15  1  0  0  0  0
 19 21  1  0  0  0  0
 19 22  1  0  0  0  0
 20 19  1  0  0  0  0
 23 14  1  0  0  0  0
 23 25  1  0  0  0  0
 24 23  1  0  0  0  0
 26 23  1  0  0  0  0
 27 28  1  0  0  0  0
 27 29  1  0  0  0  0
 30 27  1  0  0  0  0
 31 33  1  0  0  0  0
 32 31  1  0  0  0  0
 34 31  1  0  0  0  0
M  END
