1,11,29
 OpenBabel05122313063D

 29 31  0  0  0  0  0  0  0  0999 V2000
   -0.0368   -2.2764   -0.0566 C   0  0  0  0  0  2  0  0  0  0  0  0
   -1.3525   -2.7657   -0.1782 C   0  0  0  0  0  0  0  0  0  0  0  0
   -2.2206   -2.0936   -0.2469 H   0  0  0  0  0  0  0  0  0  0  0  0
   -2.8897   -4.5615   -0.3351 F   0  0  0  0  0  0  0  0  0  0  0  0
   -1.6124   -4.1415   -0.2203 C   0  0  0  0  0  0  0  0  0  0  0  0
   -0.5936   -5.1002   -0.1455 C   0  0  0  0  0  0  0  0  0  0  0  0
   -0.8432   -6.1696   -0.1822 H   0  0  0  0  0  0  0  0  0  0  0  0
    0.7240   -4.6452   -0.0319 C   0  0  0  0  0  0  0  0  0  0  0  0
    1.5378   -5.3850    0.0178 H   0  0  0  0  0  0  0  0  0  0  0  0
    1.0106   -3.2643    0.0096 C   0  0  0  0  0  0  0  0  0  0  0  0
    2.4764   -1.3989    0.0647 N   0  0  0  0  0  2  0  0  0  0  0  0
    2.3868   -2.7574    0.1016 C   0  0  0  0  0  0  0  0  0  0  0  0
    3.5738   -3.5090    0.2137 C   0  0  0  0  0  0  0  0  0  0  0  0
    3.5315   -4.6053    0.2475 H   0  0  0  0  0  0  0  0  0  0  0  0
    4.8009   -2.8358    0.2852 C   0  0  0  0  0  0  0  0  0  0  0  0
    5.7339   -3.4126    0.3760 H   0  0  0  0  0  0  0  0  0  0  0  0
    4.8523   -1.4363    0.2431 C   0  0  0  0  0  0  0  0  0  0  0  0
    5.8126   -0.9073    0.2983 H   0  0  0  0  0  0  0  0  0  0  0  0
    3.6494   -0.7103    0.1285 C   0  0  0  0  0  0  0  0  0  0  0  0
    3.4823    0.7460    0.0463 C   0  0  0  0  0  0  0  0  0  0  0  0
    4.5867    1.6233    0.0259 C   0  0  0  0  0  0  0  0  0  0  0  0
    5.6121    1.2306    0.1069 H   0  0  0  0  0  0  0  0  0  0  0  0
    4.4025    3.0035   -0.1081 C   0  0  0  0  0  0  0  0  0  0  0  0
    5.2450    3.7086   -0.1280 H   0  0  0  0  0  0  0  0  0  0  0  0
    2.8882    4.8020   -0.3794 F   0  0  0  0  0  0  0  0  0  0  0  0
    3.0897    3.4749   -0.2323 C   0  0  0  0  0  0  0  0  0  0  0  0
    1.9776    2.6229   -0.2083 C   0  0  0  0  0  0  0  0  0  0  0  0
    0.9917    3.0903   -0.3166 H   0  0  0  0  0  0  0  0  0  0  0  0
    2.1280    1.2330   -0.0513 C   0  0  0  0  0  3  0  0  0  0  0  0
  1 10  1  0  0  0  0
  2  1  1  0  0  0  0
  3  2  1  0  0  0  0
  4  5  1  0  0  0  0
  5  2  2  0  0  0  0
  5  6  1  0  0  0  0
  6  8  2  0  0  0  0
  7  6  1  0  0  0  0
  8 10  1  0  0  0  0
  8  9  1  0  0  0  0
 10 12  2  0  0  0  0
 11 12  1  0  0  0  0
 11 19  1  0  0  0  0
 12 13  1  0  0  0  0
 13 14  1  0  0  0  0
 13 15  2  0  0  0  0
 15 16  1  0  0  0  0
 17 15  1  0  0  0  0
 17 18  1  0  0  0  0
 19 17  2  0  0  0  0
 20 19  1  0  0  0  0
 21 20  1  0  0  0  0
 21 22  1  0  0  0  0
 23 21  2  0  0  0  0
 24 23  1  0  0  0  0
 25 26  1  0  0  0  0
 26 27  2  0  0  0  0
 26 23  1  0  0  0  0
 27 29  1  0  0  0  0
 28 27  1  0  0  0  0
 29 20  2  0  0  0  0
M  END
