1,6,7
 OpenBabel05122313063D

 49 51  0  0  1  0  0  0  0  0999 V2000
   -0.0001    2.2721   -0.2762 N   0  0  0  0  0  2  0  0  0  0  0  0
    2.2660    2.0986   -0.3024 N   0  0  0  0  0  0  0  0  0  0  0  0
    3.3437    0.2187   -0.3118 N   0  0  0  0  0  0  0  0  0  0  0  0
   -2.2661    2.0985   -0.3028 N   0  0  0  0  0  0  0  0  0  0  0  0
   -3.3438    0.2185   -0.3123 N   0  0  0  0  0  0  0  0  0  0  0  0
    2.0650    0.7149   -0.2101 C   0  0  0  0  0  2  0  0  0  0  0  0
   -2.0651    0.7148   -0.2104 C   0  0  0  0  0  2  0  0  0  0  0  0
    3.6069    2.4324   -0.4397 C   0  0  0  0  0  0  0  0  0  0  0  0
    3.9696    3.4585   -0.5348 H   0  0  0  0  0  0  0  0  0  0  0  0
    4.2780    1.2468   -0.4436 C   0  0  0  0  0  0  0  0  0  0  0  0
    5.3493    1.0648   -0.5349 H   0  0  0  0  0  0  0  0  0  0  0  0
   -3.6070    2.4322   -0.4403 C   0  0  0  0  0  0  0  0  0  0  0  0
   -3.9698    3.4583   -0.5355 H   0  0  0  0  0  0  0  0  0  0  0  0
   -4.2780    1.2465   -0.4444 C   0  0  0  0  0  0  0  0  0  0  0  0
   -5.3494    1.0645   -0.5358 H   0  0  0  0  0  0  0  0  0  0  0  0
    1.1696    2.9587   -0.3370 C   0  0  1  0  0  3  0  0  0  0  0  0
    1.2170    4.3537   -0.4287 C   0  0  0  0  0  0  0  0  0  0  0  0
    2.1761    4.8844   -0.4748 H   0  0  0  0  0  0  0  0  0  0  0  0
   -0.0001    5.0522   -0.4710 C   0  0  0  0  0  0  0  0  0  0  0  0
   -0.0001    6.1484   -0.5458 H   0  0  0  0  0  0  0  0  0  0  0  0
   -1.2173    4.3537   -0.4289 C   0  0  0  0  0  0  0  0  0  0  0  0
   -2.1763    4.8843   -0.4751 H   0  0  0  0  0  0  0  0  0  0  0  0
   -1.1697    2.9586   -0.3372 C   0  0  0  0  0  0  0  0  0  0  0  0
    3.7294   -1.2370   -0.3507 C   0  0  0  0  0  0  0  0  0  0  0  0
    3.0151   -1.8735   -1.5502 C   0  0  0  0  0  0  0  0  0  0  0  0
    1.9352   -1.6624   -1.5255 H   0  0  0  0  0  0  0  0  0  0  0  0
    3.1711   -2.9693   -1.5523 H   0  0  0  0  0  0  0  0  0  0  0  0
    3.4042   -1.4641   -2.5028 H   0  0  0  0  0  0  0  0  0  0  0  0
    3.3400   -1.8680    0.9929 C   0  0  0  0  0  0  0  0  0  0  0  0
    2.2680   -1.7335    1.2005 H   0  0  0  0  0  0  0  0  0  0  0  0
    3.9149   -1.4069    1.8204 H   0  0  0  0  0  0  0  0  0  0  0  0
    3.5584   -2.9532    0.9801 H   0  0  0  0  0  0  0  0  0  0  0  0
    5.2464   -1.3804   -0.5391 C   0  0  0  0  0  0  0  0  0  0  0  0
    5.8231   -0.9466    0.3018 H   0  0  0  0  0  0  0  0  0  0  0  0
    5.5957   -0.9395   -1.4932 H   0  0  0  0  0  0  0  0  0  0  0  0
    5.4826   -2.4608   -0.5747 H   0  0  0  0  0  0  0  0  0  0  0  0
   -3.7293   -1.2372   -0.3513 C   0  0  0  0  0  0  0  0  0  0  0  0
   -3.0148   -1.8737   -1.5506 C   0  0  0  0  0  0  0  0  0  0  0  0
   -1.9349   -1.6624   -1.5258 H   0  0  0  0  0  0  0  0  0  0  0  0
   -3.4038   -1.4644   -2.5033 H   0  0  0  0  0  0  0  0  0  0  0  0
   -3.1706   -2.9695   -1.5527 H   0  0  0  0  0  0  0  0  0  0  0  0
   -3.3401   -1.8682    0.9924 C   0  0  0  0  0  0  0  0  0  0  0  0
   -3.9153   -1.4071    1.8198 H   0  0  0  0  0  0  0  0  0  0  0  0
   -2.2682   -1.7335    1.2003 H   0  0  0  0  0  0  0  0  0  0  0  0
   -3.5584   -2.9534    0.9796 H   0  0  0  0  0  0  0  0  0  0  0  0
   -5.2463   -1.3807   -0.5400 C   0  0  0  0  0  0  0  0  0  0  0  0
   -5.4824   -2.4611   -0.5756 H   0  0  0  0  0  0  0  0  0  0  0  0
   -5.5954   -0.9399   -1.4942 H   0  0  0  0  0  0  0  0  0  0  0  0
   -5.8232   -0.9469    0.3008 H   0  0  0  0  0  0  0  0  0  0  0  0
  2  6  1  0  0  0  0
  3  6  1  0  0  0  0
  4  7  1  0  0  0  0
  5  7  1  0  0  0  0
  8  2  1  0  0  0  0
  9  8  1  0  0  0  0
 10  8  2  0  0  0  0
 10  3  1  0  0  0  0
 11 10  1  0  0  0  0
 12  4  1  0  0  0  0
 13 12  1  0  0  0  0
 14 12  2  0  0  0  0
 14  5  1  0  0  0  0
 15 14  1  0  0  0  0
 16  2  1  6  0  0  0
 16  1  1  0  0  0  0
 17 16  1  0  0  0  0
 18 17  1  0  0  0  0
 19 21  1  0  0  0  0
 19 17  2  0  0  0  0
 20 19  1  0  0  0  0
 21 23  2  0  0  0  0
 22 21  1  0  0  0  0
 23  4  1  0  0  0  0
 23  1  1  0  0  0  0
 24  3  1  0  0  0  0
 24 29  1  0  0  0  0
 25 26  1  0  0  0  0
 25 24  1  0  0  0  0
 27 25  1  0  0  0  0
 28 25  1  0  0  0  0
 29 30  1  0  0  0  0
 29 31  1  0  0  0  0
 32 29  1  0  0  0  0
 33 24  1  0  0  0  0
 33 34  1  0  0  0  0
 35 33  1  0  0  0  0
 36 33  1  0  0  0  0
 37  5  1  0  0  0  0
 37 42  1  0  0  0  0
 38 39  1  0  0  0  0
 38 37  1  0  0  0  0
 40 38  1  0  0  0  0
 41 38  1  0  0  0  0
 42 44  1  0  0  0  0
 42 43  1  0  0  0  0
 45 42  1  0  0  0  0
 46 37  1  0  0  0  0
 46 49  1  0  0  0  0
 47 46  1  0  0  0  0
 48 46  1  0  0  0  0
M  END
