1,20,29
 OpenBabel05122313063D

 39 41  0  0  0  0  0  0  0  0999 V2000
    2.1493    0.2510   -0.8637 N   0  0  0  0  0  2  0  0  0  0  0  0
    0.8457    2.4298    0.4291 N   0  0  0  0  0  0  0  0  0  0  0  0
   -1.2018    1.8826   -0.0461 N   0  0  0  0  0  0  0  0  0  0  0  0
    2.6522   -0.5005   -1.8897 C   0  0  0  0  0  3  0  0  0  0  0  0
    2.0356   -1.3594   -2.1844 H   0  0  0  0  0  0  0  0  0  0  0  0
    3.8594   -0.2170   -2.5294 C   0  0  0  0  0  0  0  0  0  0  0  0
    4.2111   -0.8867   -3.3280 H   0  0  0  0  0  0  0  0  0  0  0  0
    4.5842    0.9288   -2.1635 C   0  0  0  0  0  0  0  0  0  0  0  0
    5.5330    1.1886   -2.6540 H   0  0  0  0  0  0  0  0  0  0  0  0
    4.0380    1.7474   -1.1613 C   0  0  0  0  0  0  0  0  0  0  0  0
    4.5483    2.6711   -0.8485 H   0  0  0  0  0  0  0  0  0  0  0  0
    2.8397    1.3904   -0.5327 C   0  0  0  0  0  0  0  0  0  0  0  0
    2.2741    2.2258    0.5935 C   0  0  0  0  0  0  0  0  0  0  0  0
    2.4461    1.7059    1.5612 H   0  0  0  0  0  0  0  0  0  0  0  0
    2.7792    3.2089    0.6336 H   0  0  0  0  0  0  0  0  0  0  0  0
    0.1607    3.6233    0.2176 C   0  0  0  0  0  0  0  0  0  0  0  0
    0.6343    4.6057    0.3067 H   0  0  0  0  0  0  0  0  0  0  0  0
   -1.1325    3.2778   -0.0751 C   0  0  0  0  0  0  0  0  0  0  0  0
   -1.9918    3.9064   -0.3172 H   0  0  0  0  0  0  0  0  0  0  0  0
    0.0364    1.3335    0.2531 C   0  0  0  0  0  2  0  0  0  0  0  0
   -2.2946    1.0515   -0.4357 C   0  0  0  0  0  0  0  0  0  0  0  0
   -3.6077    1.3080    0.0080 C   0  0  0  0  0  0  0  0  0  0  0  0
   -4.6264    0.4163   -0.3903 C   0  0  0  0  0  0  0  0  0  0  0  0
   -5.6567    0.6041   -0.0475 H   0  0  0  0  0  0  0  0  0  0  0  0
   -4.3564   -0.7088   -1.1855 C   0  0  0  0  0  0  0  0  0  0  0  0
   -3.0250   -0.9447   -1.5797 C   0  0  0  0  0  0  0  0  0  0  0  0
   -2.7967   -1.8199   -2.2088 H   0  0  0  0  0  0  0  0  0  0  0  0
   -1.9592   -0.0964   -1.2143 C   0  0  0  0  0  0  0  0  0  0  0  0
   -0.5456   -0.3937   -1.5616 C   0  0  0  0  0  3  0  0  0  0  0  0
   -0.1192    0.4169   -2.1939 H   0  0  0  0  0  0  0  0  0  0  0  0
   -0.4845   -1.3413   -2.1376 H   0  0  0  0  0  0  0  0  0  0  0  0
   -5.4565   -1.6499   -1.6110 C   0  0  0  0  0  0  0  0  0  0  0  0
   -6.4300   -1.3734   -1.1613 H   0  0  0  0  0  0  0  0  0  0  0  0
   -5.2303   -2.6964   -1.3178 H   0  0  0  0  0  0  0  0  0  0  0  0
   -5.5824   -1.6492   -2.7145 H   0  0  0  0  0  0  0  0  0  0  0  0
   -3.9470    2.4565    0.9274 C   0  0  0  0  0  0  0  0  0  0  0  0
   -4.8873    2.2467    1.4727 H   0  0  0  0  0  0  0  0  0  0  0  0
   -4.1003    3.4119    0.3804 H   0  0  0  0  0  0  0  0  0  0  0  0
   -3.1488    2.6370    1.6753 H   0  0  0  0  0  0  0  0  0  0  0  0
  1 12  1  0  0  0  0
  2 13  1  0  0  0  0
  3 20  1  0  0  0  0
  4  1  1  0  0  0  0
  5  4  1  0  0  0  0
  6  8  2  0  0  0  0
  6  4  1  0  0  0  0
  7  6  1  0  0  0  0
  8 10  1  0  0  0  0
  9  8  1  0  0  0  0
 10 11  1  0  0  0  0
 10 12  2  0  0  0  0
 12 13  1  0  0  0  0
 13 15  1  0  0  0  0
 13 14  1  0  0  0  0
 16 17  1  0  0  0  0
 16  2  1  0  0  0  0
 18  3  1  0  0  0  0
 18 16  2  0  0  0  0
 19 18  1  0  0  0  0
 20  2  1  0  0  0  0
 21  3  1  0  0  0  0
 21 22  1  0  0  0  0
 22 36  1  0  0  0  0
 23 24  1  0  0  0  0
 23 22  2  0  0  0  0
 25 23  1  0  0  0  0
 26 28  1  0  0  0  0
 26 25  2  0  0  0  0
 27 26  1  0  0  0  0
 28 21  2  0  0  0  0
 29 28  1  0  0  0  0
 30 29  1  0  0  0  0
 31 29  1  0  0  0  0
 32 34  1  0  0  0  0
 32 25  1  0  0  0  0
 32 33  1  0  0  0  0
 35 32  1  0  0  0  0
 36 37  1  0  0  0  0
 36 39  1  0  0  0  0
 38 36  1  0  0  0  0
M  END
