3,6,7
 OpenBabel05122313063D

 20 20  0  0  1  0  0  0  0  0999 V2000
    2.0427    0.9012   -1.7530 C   0  0  0  0  0  3  0  0  0  0  0  0
    1.7452    0.5967   -2.7665 H   0  0  0  0  0  0  0  0  0  0  0  0
    1.4812   -1.9577   -0.1433 N   0  0  0  0  0  0  0  0  0  0  0  0
    1.2224   -2.3862    0.7636 H   0  0  0  0  0  0  0  0  0  0  0  0
    0.8389   -2.3344   -0.8538 H   0  0  0  0  0  0  0  0  0  0  0  0
    3.0296    0.1442   -1.0254 C   0  0  1  0  0  3  0  0  0  0  0  0
    1.3548    1.9634   -1.0848 C   0  0  0  0  0  3  0  0  0  0  0  0
    0.5276    2.4737   -1.6012 H   0  0  0  0  0  0  0  0  0  0  0  0
    3.4528    0.5886    0.2803 C   0  0  0  0  0  0  0  0  0  0  0  0
    4.2196    0.0325    0.8377 H   0  0  0  0  0  0  0  0  0  0  0  0
    2.7392    1.6370    0.9236 C   0  0  0  0  0  0  0  0  0  0  0  0
    2.9532    1.8617    1.9791 H   0  0  0  0  0  0  0  0  0  0  0  0
    3.4359   -1.2401   -1.5033 C   0  0  0  0  0  0  0  0  0  0  0  0
    4.5384   -1.3343   -1.5847 H   0  0  0  0  0  0  0  0  0  0  0  0
    3.0201   -1.4214   -2.5149 H   0  0  0  0  0  0  0  0  0  0  0  0
    1.6805    2.3338    0.2595 C   0  0  0  0  0  3  0  0  0  0  0  0
    1.1176    3.1200    0.7799 H   0  0  0  0  0  0  0  0  0  0  0  0
    2.9004   -2.2742   -0.5001 C   0  0  0  0  0  0  0  0  0  0  0  0
    2.9881   -3.3077   -0.8950 H   0  0  0  0  0  0  0  0  0  0  0  0
    3.4781   -2.2320    0.4436 H   0  0  0  0  0  0  0  0  0  0  0  0
  1  7  1  0  0  0  0
  1  6  1  0  0  0  0
  2  1  1  0  0  0  0
  3  4  1  0  0  0  0
  5  3  1  0  0  0  0
  6 13  1  1  0  0  0
  6  9  1  0  0  0  0
  7 16  1  0  0  0  0
  8  7  1  0  0  0  0
  9 10  1  0  0  0  0
  9 11  2  0  0  0  0
 11 12  1  0  0  0  0
 13 18  1  0  0  0  0
 14 13  1  0  0  0  0
 15 13  1  0  0  0  0
 16 17  1  0  0  0  0
 16 11  1  0  0  0  0
 18  3  1  0  0  0  0
 18 20  1  0  0  0  0
 19 18  1  0  0  0  0
M  END
