4,8,29
 OpenBabel05122313063D

 42 42  0  0  1  0  0  0  0  0999 V2000
   -0.7830   -1.8220   -0.7975 C   0  0  0  0  0  0  0  0  0  0  0  0
   -0.2871   -1.3861   -2.0627 C   0  0  0  0  0  0  0  0  0  0  0  0
   -0.8416   -0.8110   -2.8097 H   0  0  0  0  0  0  0  0  0  0  0  0
    1.0792   -1.7837   -2.1928 C   0  0  0  0  0  3  0  0  0  0  0  0
    1.7255   -1.5707   -3.0506 H   0  0  0  0  0  0  0  0  0  0  0  0
    1.4477   -2.4505   -1.0031 C   0  0  0  0  0  3  0  0  0  0  0  0
    2.4203   -2.9023   -0.7913 H   0  0  0  0  0  0  0  0  0  0  0  0
    0.3213   -2.4385   -0.1236 C   0  0  0  0  0  3  0  0  0  0  0  0
    0.2897   -2.8984    0.8693 H   0  0  0  0  0  0  0  0  0  0  0  0
   -2.2429   -1.7910   -0.3402 C   0  0  0  0  0  0  0  0  0  0  0  0
   -2.5634   -3.1985    0.2176 C   0  0  0  0  0  0  0  0  0  0  0  0
   -2.3757   -3.9556   -0.5691 H   0  0  0  0  0  0  0  0  0  0  0  0
   -3.6266   -3.2868    0.5163 H   0  0  0  0  0  0  0  0  0  0  0  0
   -1.9389   -3.4698    1.0885 H   0  0  0  0  0  0  0  0  0  0  0  0
   -3.1313   -1.5850   -1.5839 C   0  0  0  0  0  0  0  0  0  0  0  0
   -2.9802   -0.5928   -2.0445 H   0  0  0  0  0  0  0  0  0  0  0  0
   -4.2041   -1.6857   -1.3326 H   0  0  0  0  0  0  0  0  0  0  0  0
   -2.8946   -2.3493   -2.3495 H   0  0  0  0  0  0  0  0  0  0  0  0
   -2.5609   -0.6489    0.7605 C   0  0  0  0  0  0  0  0  0  0  0  0
   -1.8797   -0.9898    2.1004 C   0  0  0  0  0  0  0  0  0  0  0  0
   -2.0428   -0.1692    2.8258 H   0  0  0  0  0  0  0  0  0  0  0  0
   -0.7914   -1.1089    1.9644 H   0  0  0  0  0  0  0  0  0  0  0  0
   -2.2974   -1.9145    2.5433 H   0  0  0  0  0  0  0  0  0  0  0  0
   -4.0733   -0.5863    1.0462 C   0  0  0  0  0  0  0  0  0  0  0  0
   -4.4621   -1.6011    1.2605 H   0  0  0  0  0  0  0  0  0  0  0  0
   -4.6744   -0.1693    0.2205 H   0  0  0  0  0  0  0  0  0  0  0  0
   -4.2708    0.0206    1.9494 H   0  0  0  0  0  0  0  0  0  0  0  0
   -1.9077    0.6710    0.2376 C   0  0  1  0  0  3  0  0  0  0  0  0
   -0.6475    0.6363    0.0642 N   0  0  0  0  0  1  0  0  0  0  0  0
   -2.6500    1.9999   -0.1201 C   0  0  0  0  0  0  0  0  0  0  0  0
   -3.6003    1.8437   -1.3272 C   0  0  0  0  0  0  0  0  0  0  0  0
   -4.0832    2.8205   -1.5369 H   0  0  0  0  0  0  0  0  0  0  0  0
   -4.4070    1.1051   -1.1665 H   0  0  0  0  0  0  0  0  0  0  0  0
   -3.0357    1.5523   -2.2352 H   0  0  0  0  0  0  0  0  0  0  0  0
   -3.4253    2.5461    1.1007 C   0  0  0  0  0  0  0  0  0  0  0  0
   -2.7834    2.5674    2.0057 H   0  0  0  0  0  0  0  0  0  0  0  0
   -4.3367    1.9682    1.3357 H   0  0  0  0  0  0  0  0  0  0  0  0
   -3.7404    3.5898    0.8937 H   0  0  0  0  0  0  0  0  0  0  0  0
   -1.5892    3.0469   -0.5155 C   0  0  0  0  0  0  0  0  0  0  0  0
   -2.0937    3.9803   -0.8392 H   0  0  0  0  0  0  0  0  0  0  0  0
   -0.9375    2.6797   -1.3321 H   0  0  0  0  0  0  0  0  0  0  0  0
   -0.9318    3.2905    0.3400 H   0  0  0  0  0  0  0  0  0  0  0  0
  1 10  1  0  0  0  0
  1  8  1  0  0  0  0
  2  1  2  0  0  0  0
  3  2  1  0  0  0  0
  4  2  1  0  0  0  0
  4  6  1  0  0  0  0
  5  4  1  0  0  0  0
  6  7  1  0  0  0  0
  6  8  1  0  0  0  0
  8  9  1  0  0  0  0
 10 11  1  0  0  0  0
 10 19  1  0  0  0  0
 11 13  1  0  0  0  0
 11 14  1  0  0  0  0
 12 11  1  0  0  0  0
 15 17  1  0  0  0  0
 15 10  1  0  0  0  0
 16 15  1  0  0  0  0
 18 15  1  0  0  0  0
 19 24  1  0  0  0  0
 19 20  1  0  0  0  0
 20 23  1  0  0  0  0
 20 21  1  0  0  0  0
 22 20  1  0  0  0  0
 24 25  1  0  0  0  0
 24 27  1  0  0  0  0
 26 24  1  0  0  0  0
 28 29  1  6  0  0  0
 28 19  1  0  0  0  0
 30 28  1  0  0  0  0
 30 35  1  0  0  0  0
 31 33  1  0  0  0  0
 31 30  1  0  0  0  0
 32 31  1  0  0  0  0
 34 31  1  0  0  0  0
 35 37  1  0  0  0  0
 35 36  1  0  0  0  0
 38 35  1  0  0  0  0
 39 30  1  0  0  0  0
 39 42  1  0  0  0  0
 40 39  1  0  0  0  0
 41 39  1  0  0  0  0
M  END
