1,3,24
 OpenBabel05122313063D

 41 42  0  0  1  0  0  0  0  0999 V2000
   -0.9607   -1.7991   -0.0002 N   0  0  0  0  0  2  0  0  0  0  0  0
   -4.5561   -1.1949   -0.0009 N   0  0  0  0  0  0  0  0  0  0  0  0
    1.3216   -0.6301    0.0002 C   0  0  0  0  0  3  0  0  0  0  0  0
    2.6035   -0.0325   -0.0001 C   0  0  0  0  0  0  0  0  0  0  0  0
    2.6740    1.0579   -0.0003 H   0  0  0  0  0  0  0  0  0  0  0  0
    3.8177   -0.7548   -0.0001 C   0  0  0  0  0  0  0  0  0  0  0  0
    3.7616   -2.1723    0.0002 C   0  0  0  0  0  0  0  0  0  0  0  0
    4.6888   -2.7636    0.0003 H   0  0  0  0  0  0  0  0  0  0  0  0
    2.5333   -2.8266    0.0004 C   0  0  0  0  0  0  0  0  0  0  0  0
    2.4900   -3.9278    0.0005 H   0  0  0  0  0  0  0  0  0  0  0  0
    1.3372   -2.0707    0.0003 C   0  0  0  0  0  0  0  0  0  0  0  0
    0.0302   -2.6576    0.0001 C   0  0  0  0  0  3  0  0  0  0  0  0
   -0.1489   -3.7499    0.0000 H   0  0  0  0  0  0  0  0  0  0  0  0
   -2.3342   -2.2565   -0.0007 C   0  0  0  0  0  0  0  0  0  0  0  0
   -2.5417   -2.9003   -0.8898 H   0  0  0  0  0  0  0  0  0  0  0  0
   -2.5423   -2.9010    0.8878 H   0  0  0  0  0  0  0  0  0  0  0  0
   -3.1981   -1.0305   -0.0006 C   0  0  1  0  0  3  0  0  0  0  0  0
   -5.4023   -0.1177   -0.0010 C   0  0  0  0  0  0  0  0  0  0  0  0
   -6.4777   -0.3330   -0.0012 H   0  0  0  0  0  0  0  0  0  0  0  0
   -4.8588    1.1605   -0.0008 C   0  0  0  0  0  0  0  0  0  0  0  0
   -5.5384    2.0251   -0.0009 H   0  0  0  0  0  0  0  0  0  0  0  0
   -3.4679    1.3279   -0.0004 C   0  0  0  0  0  0  0  0  0  0  0  0
   -3.1003    2.3622   -0.0003 H   0  0  0  0  0  0  0  0  0  0  0  0
   -2.5404    0.2401   -0.0003 C   0  0  0  0  0  3  0  0  0  0  0  0
    5.1879   -0.0571   -0.0004 C   0  0  0  0  0  0  0  0  0  0  0  0
    5.9705   -0.4834    1.2637 C   0  0  0  0  0  0  0  0  0  0  0  0
    5.4277   -0.1882    2.1847 H   0  0  0  0  0  0  0  0  0  0  0  0
    6.9669    0.0033    1.2818 H   0  0  0  0  0  0  0  0  0  0  0  0
    6.1315   -1.5786    1.3022 H   0  0  0  0  0  0  0  0  0  0  0  0
    5.0691    1.4768   -0.0012 C   0  0  0  0  0  0  0  0  0  0  0  0
    4.5385    1.8520   -0.8998 H   0  0  0  0  0  0  0  0  0  0  0  0
    6.0802    1.9299   -0.0013 H   0  0  0  0  0  0  0  0  0  0  0  0
    4.5385    1.8529    0.8970 H   0  0  0  0  0  0  0  0  0  0  0  0
    5.9705   -0.4846   -1.2640 C   0  0  0  0  0  0  0  0  0  0  0  0
    6.1315   -1.5799   -1.3014 H   0  0  0  0  0  0  0  0  0  0  0  0
    6.9670    0.0021   -1.2825 H   0  0  0  0  0  0  0  0  0  0  0  0
    5.4279   -0.1903   -2.1854 H   0  0  0  0  0  0  0  0  0  0  0  0
   -5.1385   -2.5448   -0.0011 C   0  0  0  0  0  0  0  0  0  0  0  0
   -4.8165   -3.1028   -0.9011 H   0  0  0  0  0  0  0  0  0  0  0  0
   -6.2390   -2.4678   -0.0016 H   0  0  0  0  0  0  0  0  0  0  0  0
   -4.8172   -3.1027    0.8992 H   0  0  0  0  0  0  0  0  0  0  0  0
  1 12  1  0  0  0  0
  2 17  1  0  0  0  0
  3 11  1  0  0  0  0
  4  6  1  0  0  0  0
  4  3  2  0  0  0  0
  5  4  1  0  0  0  0
  6  7  2  0  0  0  0
  7  8  1  0  0  0  0
  7  9  1  0  0  0  0
  9 10  1  0  0  0  0
 11  9  2  0  0  0  0
 12 11  1  0  0  0  0
 13 12  1  0  0  0  0
 14  1  1  0  0  0  0
 14 16  1  0  0  0  0
 15 14  1  0  0  0  0
 17 14  1  6  0  0  0
 17 24  1  0  0  0  0
 18  2  1  0  0  0  0
 18 20  2  0  0  0  0
 19 18  1  0  0  0  0
 20 22  1  0  0  0  0
 21 20  1  0  0  0  0
 22 23  1  0  0  0  0
 22 24  2  0  0  0  0
 25  6  1  0  0  0  0
 25 26  1  0  0  0  0
 26 28  1  0  0  0  0
 26 29  1  0  0  0  0
 26 27  1  0  0  0  0
 30 25  1  0  0  0  0
 30 33  1  0  0  0  0
 31 30  1  0  0  0  0
 32 30  1  0  0  0  0
 34 25  1  0  0  0  0
 35 34  1  0  0  0  0
 36 34  1  0  0  0  0
 37 34  1  0  0  0  0
 38  2  1  0  0  0  0
 38 41  1  0  0  0  0
 39 38  1  0  0  0  0
 40 38  1  0  0  0  0
M  END
