1,13,28
 OpenBabel05122313063D

 29 31  0  0  0  0  0  0  0  0999 V2000
    1.9992   -1.0326    0.0006 N   0  0  0  0  0  2  0  0  0  0  0  0
    3.3115   -0.6965    0.0004 C   0  0  0  0  0  3  0  0  0  0  0  0
    3.5355    0.3754    0.0004 H   0  0  0  0  0  0  0  0  0  0  0  0
    4.3705   -1.6061    0.0003 C   0  0  0  0  0  0  0  0  0  0  0  0
    5.4041   -1.2324    0.0001 H   0  0  0  0  0  0  0  0  0  0  0  0
    4.0783   -2.9852    0.0004 C   0  0  0  0  0  0  0  0  0  0  0  0
    4.8832   -3.7355    0.0003 H   0  0  0  0  0  0  0  0  0  0  0  0
    2.7414   -3.3708    0.0007 C   0  0  0  0  0  0  0  0  0  0  0  0
    2.4530   -4.4322    0.0009 H   0  0  0  0  0  0  0  0  0  0  0  0
    1.7088   -2.3971    0.0009 C   0  0  0  0  0  0  0  0  0  0  0  0
    0.3145   -2.6923    0.0012 C   0  0  0  0  0  0  0  0  0  0  0  0
   -0.0300   -3.7406    0.0013 H   0  0  0  0  0  0  0  0  0  0  0  0
   -0.5050   -1.5782    0.0010 C   0  0  0  0  0  3  0  0  0  0  0  0
   -1.9649   -1.6078    0.0009 C   0  0  0  0  0  0  0  0  0  0  0  0
   -2.8061   -2.7269    0.0015 C   0  0  0  0  0  0  0  0  0  0  0  0
   -2.3818   -3.7430    0.0024 H   0  0  0  0  0  0  0  0  0  0  0  0
   -4.2106   -2.5503    0.0011 C   0  0  0  0  0  0  0  0  0  0  0  0
   -4.8690   -3.4332    0.0017 H   0  0  0  0  0  0  0  0  0  0  0  0
   -4.7702   -1.2741    0.0000 C   0  0  0  0  0  0  0  0  0  0  0  0
   -5.8652   -1.1497   -0.0004 H   0  0  0  0  0  0  0  0  0  0  0  0
   -3.9457   -0.1088   -0.0007 C   0  0  0  0  0  0  0  0  0  0  0  0
   -4.4553    1.2225   -0.0020 C   0  0  0  0  0  0  0  0  0  0  0  0
   -5.5436    1.3912   -0.0024 H   0  0  0  0  0  0  0  0  0  0  0  0
   -3.5613    2.2845   -0.0027 C   0  0  0  0  0  0  0  0  0  0  0  0
   -3.9450    3.3183   -0.0037 H   0  0  0  0  0  0  0  0  0  0  0  0
   -2.1519    2.0781   -0.0021 C   0  0  0  0  0  0  0  0  0  0  0  0
   -1.5223    2.9753   -0.0027 H   0  0  0  0  0  0  0  0  0  0  0  0
   -1.5663    0.7998   -0.0008 C   0  0  0  0  0  3  0  0  0  0  0  0
   -2.5198   -0.2900   -0.0002 C   0  0  0  0  0  0  0  0  0  0  0  0
  1 10  1  0  0  0  0
  2  1  1  0  0  0  0
  3  2  1  0  0  0  0
  4  6  2  0  0  0  0
  4  2  1  0  0  0  0
  5  4  1  0  0  0  0
  6  8  1  0  0  0  0
  7  6  1  0  0  0  0
  8  9  1  0  0  0  0
  8 10  2  0  0  0  0
 10 11  1  0  0  0  0
 11 12  1  0  0  0  0
 13 11  2  0  0  0  0
 14 13  1  0  0  0  0
 14 15  1  0  0  0  0
 15 16  1  0  0  0  0
 17 15  2  0  0  0  0
 17 18  1  0  0  0  0
 19 17  1  0  0  0  0
 20 19  1  0  0  0  0
 21 29  1  0  0  0  0
 21 19  2  0  0  0  0
 22 21  1  0  0  0  0
 23 22  1  0  0  0  0
 24 26  1  0  0  0  0
 24 22  2  0  0  0  0
 25 24  1  0  0  0  0
 26 28  2  0  0  0  0
 27 26  1  0  0  0  0
 28 29  1  0  0  0  0
 29 14  2  0  0  0  0
M  END
