1,15,23
 OpenBabel05122313063D

 66 69  0  0  0  0  0  0  0  0999 V2000
    1.2359   -2.8543    0.0301 N   0  0  0  0  0  2  0  0  0  0  0  0
    1.9915   -3.9646    0.0695 C   0  0  0  0  0  0  0  0  0  0  0  0
    3.0811   -3.7852    0.1631 H   0  0  0  0  0  0  0  0  0  0  0  0
    1.4081   -5.2354    0.0286 C   0  0  0  0  0  0  0  0  0  0  0  0
    2.0433   -6.1313    0.0634 H   0  0  0  0  0  0  0  0  0  0  0  0
    0.0185   -5.3223   -0.0589 C   0  0  0  0  0  0  0  0  0  0  0  0
   -0.4723   -6.3075   -0.1037 H   0  0  0  0  0  0  0  0  0  0  0  0
   -0.7902   -4.1686   -0.0881 C   0  0  0  0  0  0  0  0  0  0  0  0
   -0.1409   -2.9029   -0.0309 C   0  0  0  0  0  0  0  0  0  0  0  0
   -2.2824   -4.3508   -0.1855 C   0  0  0  0  0  0  0  0  0  0  0  0
   -2.8081   -3.9673    0.7127 H   0  0  0  0  0  0  0  0  0  0  0  0
   -2.5283   -5.4252   -0.2815 H   0  0  0  0  0  0  0  0  0  0  0  0
   -2.7078   -3.8265   -1.0646 H   0  0  0  0  0  0  0  0  0  0  0  0
   -0.7897   -1.5689   -0.0310 C   0  0  0  0  0  0  0  0  0  0  0  0
    0.0958   -0.4748   -0.0169 C   0  0  0  0  0  2  0  0  0  0  0  0
   -0.3220    0.8732   -0.0176 C   0  0  0  0  0  0  0  0  0  0  0  0
   -1.7020    1.1350   -0.0194 C   0  0  0  0  0  0  0  0  0  0  0  0
   -2.0675    2.1728   -0.0471 H   0  0  0  0  0  0  0  0  0  0  0  0
   -2.6345    0.0712   -0.0189 C   0  0  0  0  0  0  0  0  0  0  0  0
   -2.1742   -1.2648   -0.0256 C   0  0  0  0  0  0  0  0  0  0  0  0
   -2.9277   -2.0555    0.0091 H   0  0  0  0  0  0  0  0  0  0  0  0
    0.7940    1.8330   -0.0321 C   0  0  0  0  0  0  0  0  0  0  0  0
    2.0917    1.2496   -0.0395 C   0  0  0  0  0  3  0  0  0  0  0  0
    3.2471    2.0282   -0.0622 C   0  0  0  0  0  0  0  0  0  0  0  0
    4.2139    1.5081   -0.0728 H   0  0  0  0  0  0  0  0  0  0  0  0
    3.1575    3.4397   -0.0737 C   0  0  0  0  0  0  0  0  0  0  0  0
    1.8686    4.0191   -0.0635 C   0  0  0  0  0  0  0  0  0  0  0  0
    1.7642    5.1148   -0.0723 H   0  0  0  0  0  0  0  0  0  0  0  0
    0.7061    3.2370   -0.0442 C   0  0  0  0  0  0  0  0  0  0  0  0
   -0.2800    3.7275   -0.0396 H   0  0  0  0  0  0  0  0  0  0  0  0
   -4.0932    0.3501   -0.0095 C   0  0  0  0  0  0  0  0  0  0  0  0
   -4.6265    1.4430    0.7110 C   0  0  0  0  0  0  0  0  0  0  0  0
   -3.9522    2.0856    1.2973 H   0  0  0  0  0  0  0  0  0  0  0  0
   -6.0005    1.7007    0.7216 C   0  0  0  0  0  0  0  0  0  0  0  0
   -6.3691    2.5571    1.3068 H   0  0  0  0  0  0  0  0  0  0  0  0
   -6.9162    0.8880    0.0163 C   0  0  0  0  0  0  0  0  0  0  0  0
   -6.3809   -0.1991   -0.7026 C   0  0  0  0  0  0  0  0  0  0  0  0
   -7.0435   -0.8581   -1.2799 H   0  0  0  0  0  0  0  0  0  0  0  0
   -5.0038   -0.4625   -0.7160 C   0  0  0  0  0  0  0  0  0  0  0  0
   -4.6251   -1.3037   -1.3170 H   0  0  0  0  0  0  0  0  0  0  0  0
   -8.4200    1.2081    0.0571 C   0  0  0  0  0  0  0  0  0  0  0  0
   -9.2479    0.2154   -0.7770 C   0  0  0  0  0  0  0  0  0  0  0  0
   -8.9571    0.2322   -1.8468 H   0  0  0  0  0  0  0  0  0  0  0  0
  -10.3224    0.4818   -0.7196 H   0  0  0  0  0  0  0  0  0  0  0  0
   -9.1423   -0.8240   -0.4058 H   0  0  0  0  0  0  0  0  0  0  0  0
   -8.6528    2.6296   -0.5038 C   0  0  0  0  0  0  0  0  0  0  0  0
   -8.1111    3.3979    0.0828 H   0  0  0  0  0  0  0  0  0  0  0  0
   -9.7325    2.8844   -0.4764 H   0  0  0  0  0  0  0  0  0  0  0  0
   -8.3075    2.7021   -1.5549 H   0  0  0  0  0  0  0  0  0  0  0  0
   -8.9120    1.1439    1.5213 C   0  0  0  0  0  0  0  0  0  0  0  0
   -8.7568    0.1321    1.9473 H   0  0  0  0  0  0  0  0  0  0  0  0
   -9.9951    1.3794    1.5763 H   0  0  0  0  0  0  0  0  0  0  0  0
   -8.3770    1.8675    2.1677 H   0  0  0  0  0  0  0  0  0  0  0  0
    4.4069    4.3376   -0.0976 C   0  0  0  0  0  0  0  0  0  0  0  0
    4.4047    5.2440    1.1546 C   0  0  0  0  0  0  0  0  0  0  0  0
    3.5063    5.8915    1.1936 H   0  0  0  0  0  0  0  0  0  0  0  0
    5.2967    5.9046    1.1554 H   0  0  0  0  0  0  0  0  0  0  0  0
    4.4242    4.6367    2.0820 H   0  0  0  0  0  0  0  0  0  0  0  0
    4.3772    5.2140   -1.3707 C   0  0  0  0  0  0  0  0  0  0  0  0
    4.3771    4.5848   -2.2835 H   0  0  0  0  0  0  0  0  0  0  0  0
    5.2683    5.8747   -1.4065 H   0  0  0  0  0  0  0  0  0  0  0  0
    3.4773    5.8598   -1.4056 H   0  0  0  0  0  0  0  0  0  0  0  0
    5.7079    3.5163   -0.1020 C   0  0  0  0  0  0  0  0  0  0  0  0
    5.7960    2.8793    0.8009 H   0  0  0  0  0  0  0  0  0  0  0  0
    6.5819    4.1983   -0.1186 H   0  0  0  0  0  0  0  0  0  0  0  0
    5.7776    2.8589   -0.9915 H   0  0  0  0  0  0  0  0  0  0  0  0
  1  2  1  0  0  0  0
  2  3  1  0  0  0  0
  4  5  1  0  0  0  0
  4  2  2  0  0  0  0
  6  4  1  0  0  0  0
  7  6  1  0  0  0  0
  8  6  2  0  0  0  0
  8  9  1  0  0  0  0
  9  1  1  0  0  0  0
 10  8  1  0  0  0  0
 10 11  1  0  0  0  0
 12 10  1  0  0  0  0
 13 10  1  0  0  0  0
 14  9  2  0  0  0  0
 14 20  1  0  0  0  0
 14 15  1  0  0  0  0
 16 15  1  0  0  0  0
 17 19  1  0  0  0  0
 17 16  2  0  0  0  0
 18 17  1  0  0  0  0
 19 31  1  0  0  0  0
 20 19  2  0  0  0  0
 20 21  1  0  0  0  0
 22 16  1  0  0  0  0
 23 22  1  0  0  0  0
 24 23  2  0  0  0  0
 25 24  1  0  0  0  0
 26 27  2  0  0  0  0
 26 24  1  0  0  0  0
 27 29  1  0  0  0  0
 28 27  1  0  0  0  0
 29 30  1  0  0  0  0
 29 22  2  0  0  0  0
 31 32  1  0  0  0  0
 32 34  2  0  0  0  0
 32 33  1  0  0  0  0
 34 35  1  0  0  0  0
 36 41  1  0  0  0  0
 36 34  1  0  0  0  0
 37 36  2  0  0  0  0
 38 37  1  0  0  0  0
 39 37  1  0  0  0  0
 39 31  2  0  0  0  0
 40 39  1  0  0  0  0
 41 50  1  0  0  0  0
 42 44  1  0  0  0  0
 42 45  1  0  0  0  0
 42 41  1  0  0  0  0
 43 42  1  0  0  0  0
 46 48  1  0  0  0  0
 46 41  1  0  0  0  0
 46 47  1  0  0  0  0
 49 46  1  0  0  0  0
 50 52  1  0  0  0  0
 50 51  1  0  0  0  0
 50 53  1  0  0  0  0
 54 26  1  0  0  0  0
 54 55  1  0  0  0  0
 55 57  1  0  0  0  0
 55 56  1  0  0  0  0
 55 58  1  0  0  0  0
 59 54  1  0  0  0  0
 60 59  1  0  0  0  0
 61 59  1  0  0  0  0
 62 59  1  0  0  0  0
 63 54  1  0  0  0  0
 63 64  1  0  0  0  0
 65 63  1  0  0  0  0
 66 63  1  0  0  0  0
M  END
