4,7,19
 OpenBabel05122313063D

 61 67  0  0  1  0  0  0  0  0999 V2000
    1.1255    6.0219   -0.1383 O   0  0  0  0  0  0  0  0  0  0  0  0
   -3.1284    0.4402   -0.4181 N   0  0  0  0  0  0  0  0  0  0  0  0
   -1.8390    2.2091   -0.2628 N   0  0  0  0  0  0  0  0  0  0  0  0
    0.4092    1.9660    0.0088 N   0  0  0  0  0  2  0  0  0  0  0  0
    2.5901    1.3275    0.0990 N   0  0  0  0  0  0  0  0  0  0  0  0
    3.1240   -0.8004   -0.0343 N   0  0  0  0  0  0  0  0  0  0  0  0
   -1.8199    0.8088   -0.3536 C   0  0  0  0  0  2  0  0  0  0  0  0
   -3.9841    1.5565   -0.3753 C   0  0  0  0  0  0  0  0  0  0  0  0
   -3.1562    2.7017   -0.2714 C   0  0  0  0  0  0  0  0  0  0  0  0
   -0.6059    2.8624   -0.1423 C   0  0  1  0  0  3  0  0  0  0  0  0
   -0.3762    4.2337   -0.1857 C   0  0  0  0  0  0  0  0  0  0  0  0
   -1.1722    4.9694   -0.3290 H   0  0  0  0  0  0  0  0  0  0  0  0
    0.9608    4.6893   -0.0900 C   0  0  0  0  0  0  0  0  0  0  0  0
    2.0200    3.7621    0.0253 C   0  0  0  0  0  0  0  0  0  0  0  0
    3.0604    4.0897    0.0583 H   0  0  0  0  0  0  0  0  0  0  0  0
    1.6943    2.4005    0.0521 C   0  0  0  0  0  0  0  0  0  0  0  0
    3.9964    1.2879    0.1007 C   0  0  0  0  0  0  0  0  0  0  0  0
    4.3329   -0.0854    0.0107 C   0  0  0  0  0  0  0  0  0  0  0  0
    2.0444    0.0304    0.0154 C   0  0  0  0  0  2  0  0  0  0  0  0
   -3.5634   -0.9140   -0.5797 C   0  0  0  0  0  0  0  0  0  0  0  0
   -4.4070   -1.4920    0.3840 C   0  0  0  0  0  0  0  0  0  0  0  0
   -4.7098   -0.9091    1.2662 H   0  0  0  0  0  0  0  0  0  0  0  0
   -4.8418   -2.8138    0.2076 C   0  0  0  0  0  0  0  0  0  0  0  0
   -5.5048   -3.2737    0.9554 H   0  0  0  0  0  0  0  0  0  0  0  0
   -4.4301   -3.5462   -0.9175 C   0  0  0  0  0  0  0  0  0  0  0  0
   -4.7760   -4.5815   -1.0551 H   0  0  0  0  0  0  0  0  0  0  0  0
   -3.5810   -2.9578   -1.8690 C   0  0  0  0  0  0  0  0  0  0  0  0
   -3.2572   -3.5312   -2.7498 H   0  0  0  0  0  0  0  0  0  0  0  0
   -3.1440   -1.6358   -1.7084 C   0  0  0  0  0  0  0  0  0  0  0  0
   -2.4707   -1.1549   -2.4342 H   0  0  0  0  0  0  0  0  0  0  0  0
   -5.3784    1.6496   -0.4381 C   0  0  0  0  0  0  0  0  0  0  0  0
   -6.0031    0.7515   -0.5378 H   0  0  0  0  0  0  0  0  0  0  0  0
   -5.9359    2.9354   -0.3728 C   0  0  0  0  0  0  0  0  0  0  0  0
   -7.0282    3.0524   -0.4209 H   0  0  0  0  0  0  0  0  0  0  0  0
   -5.1205    4.0782   -0.2485 C   0  0  0  0  0  0  0  0  0  0  0  0
   -5.5876    5.0720   -0.1937 H   0  0  0  0  0  0  0  0  0  0  0  0
   -3.7202    3.9838   -0.1986 C   0  0  0  0  0  0  0  0  0  0  0  0
   -3.1134    4.8911   -0.1031 H   0  0  0  0  0  0  0  0  0  0  0  0
    2.4429    6.5610   -0.0946 C   0  0  0  0  0  0  0  0  0  0  0  0
    3.0514    6.2118   -0.9564 H   0  0  0  0  0  0  0  0  0  0  0  0
    2.9569    6.2977    0.8551 H   0  0  0  0  0  0  0  0  0  0  0  0
    2.3281    7.6577   -0.1525 H   0  0  0  0  0  0  0  0  0  0  0  0
    5.0057    2.2581    0.1891 C   0  0  0  0  0  0  0  0  0  0  0  0
    4.7926    3.3294    0.2768 H   0  0  0  0  0  0  0  0  0  0  0  0
    6.3384    1.8142    0.1750 C   0  0  0  0  0  0  0  0  0  0  0  0
    7.1462    2.5573    0.2406 H   0  0  0  0  0  0  0  0  0  0  0  0
    6.6618    0.4459    0.0846 C   0  0  0  0  0  0  0  0  0  0  0  0
    7.7173    0.1377    0.0803 H   0  0  0  0  0  0  0  0  0  0  0  0
    5.6584   -0.5315    0.0055 C   0  0  0  0  0  0  0  0  0  0  0  0
    5.8945   -1.6025   -0.0579 H   0  0  0  0  0  0  0  0  0  0  0  0
    3.0407   -2.2263   -0.1346 C   0  0  0  0  0  0  0  0  0  0  0  0
    3.5010   -2.8615   -1.2996 C   0  0  0  0  0  0  0  0  0  0  0  0
    3.8883   -2.2555   -2.1314 H   0  0  0  0  0  0  0  0  0  0  0  0
    3.4424   -4.2600   -1.3862 C   0  0  0  0  0  0  0  0  0  0  0  0
    3.8020   -4.7641   -2.2955 H   0  0  0  0  0  0  0  0  0  0  0  0
    2.9182   -5.0114   -0.3224 C   0  0  0  0  0  0  0  0  0  0  0  0
    2.8728   -6.1082   -0.3945 H   0  0  0  0  0  0  0  0  0  0  0  0
    2.4534   -4.3650    0.8344 C   0  0  0  0  0  0  0  0  0  0  0  0
    2.0419   -4.9528    1.6681 H   0  0  0  0  0  0  0  0  0  0  0  0
    2.5196   -2.9687    0.9367 C   0  0  0  0  0  0  0  0  0  0  0  0
    2.1721   -2.4439    1.8382 H   0  0  0  0  0  0  0  0  0  0  0  0
  1 39  1  0  0  0  0
  1 13  1  0  0  0  0
  2  8  1  0  0  0  0
  2  7  1  0  0  0  0
  4 16  1  0  0  0  0
  5 17  1  0  0  0  0
  6 18  1  0  0  0  0
  6 19  1  0  0  0  0
  7  3  1  0  0  0  0
  8  9  1  0  0  0  0
  9  3  1  0  0  0  0
  9 37  2  0  0  0  0
 10  3  1  6  0  0  0
 10  4  1  0  0  0  0
 11 10  1  0  0  0  0
 11 13  2  0  0  0  0
 12 11  1  0  0  0  0
 13 14  1  0  0  0  0
 14 16  2  0  0  0  0
 14 15  1  0  0  0  0
 16  5  1  0  0  0  0
 17 43  1  0  0  0  0
 18 17  2  0  0  0  0
 19  5  1  0  0  0  0
 20  2  1  0  0  0  0
 20 21  1  0  0  0  0
 21 22  1  0  0  0  0
 23 21  2  0  0  0  0
 23 24  1  0  0  0  0
 25 23  1  0  0  0  0
 26 25  1  0  0  0  0
 27 29  1  0  0  0  0
 27 25  2  0  0  0  0
 28 27  1  0  0  0  0
 29 20  2  0  0  0  0
 30 29  1  0  0  0  0
 31  8  2  0  0  0  0
 31 33  1  0  0  0  0
 32 31  1  0  0  0  0
 33 35  2  0  0  0  0
 34 33  1  0  0  0  0
 35 37  1  0  0  0  0
 35 36  1  0  0  0  0
 37 38  1  0  0  0  0
 39 41  1  0  0  0  0
 40 39  1  0  0  0  0
 42 39  1  0  0  0  0
 43 44  1  0  0  0  0
 45 43  2  0  0  0  0
 45 46  1  0  0  0  0
 47 45  1  0  0  0  0
 48 47  1  0  0  0  0
 49 18  1  0  0  0  0
 49 47  2  0  0  0  0
 50 49  1  0  0  0  0
 51  6  1  0  0  0  0
 51 60  1  0  0  0  0
 52 51  2  0  0  0  0
 53 52  1  0  0  0  0
 54 52  1  0  0  0  0
 54 56  2  0  0  0  0
 55 54  1  0  0  0  0
 56 58  1  0  0  0  0
 57 56  1  0  0  0  0
 58 60  2  0  0  0  0
 58 59  1  0  0  0  0
 60 61  1  0  0  0  0
M  END
