1,26,28
 OpenBabel05122313063D

 55 56  0  0  1  0  0  0  0  0999 V2000
   -0.5323    2.1531   -1.0408 N   0  0  0  0  0  0  0  0  0  0  0  0
   -0.2033    2.9957   -1.5359 H   0  0  0  0  0  0  0  0  0  0  0  0
   -1.2227    1.7061   -1.6635 H   0  0  0  0  0  0  0  0  0  0  0  0
   -2.2195    0.1702    0.4646 C   0  0  0  0  0  0  0  0  0  0  0  0
   -1.7118   -0.7586   -0.4910 C   0  0  0  0  0  0  0  0  0  0  0  0
   -2.6145   -1.7223   -1.0121 C   0  0  0  0  0  0  0  0  0  0  0  0
   -2.2523   -2.4563   -1.7450 H   0  0  0  0  0  0  0  0  0  0  0  0
   -3.9536   -1.7985   -0.6133 C   0  0  0  0  0  0  0  0  0  0  0  0
   -4.6079   -2.5725   -1.0411 H   0  0  0  0  0  0  0  0  0  0  0  0
   -4.4444   -0.8876    0.3305 C   0  0  0  0  0  0  0  0  0  0  0  0
   -5.4922   -0.9285    0.6621 H   0  0  0  0  0  0  0  0  0  0  0  0
   -3.5770    0.0790    0.8486 C   0  0  0  0  0  0  0  0  0  0  0  0
   -3.9564    0.7974    1.5920 H   0  0  0  0  0  0  0  0  0  0  0  0
   -1.4108    1.2820    1.0949 C   0  0  0  0  0  0  0  0  0  0  0  0
   -0.3984    0.9169    1.3675 H   0  0  0  0  0  0  0  0  0  0  0  0
   -1.9057    1.5926    2.0365 H   0  0  0  0  0  0  0  0  0  0  0  0
   -1.2293    2.5595    0.2305 C   0  0  0  0  0  0  0  0  0  0  0  0
   -0.3266    3.5450    0.9794 C   0  0  0  0  0  0  0  0  0  0  0  0
    0.6427    3.0761    1.2406 H   0  0  0  0  0  0  0  0  0  0  0  0
   -0.8159    3.8692    1.9175 H   0  0  0  0  0  0  0  0  0  0  0  0
   -0.1251    4.4524    0.3741 H   0  0  0  0  0  0  0  0  0  0  0  0
   -2.5730    3.2141   -0.1181 C   0  0  0  0  0  0  0  0  0  0  0  0
   -2.4234    4.1149   -0.7474 H   0  0  0  0  0  0  0  0  0  0  0  0
   -3.1024    3.5333    0.8010 H   0  0  0  0  0  0  0  0  0  0  0  0
   -3.2375    2.5112   -0.6601 H   0  0  0  0  0  0  0  0  0  0  0  0
   -0.2748   -0.8725   -0.9905 C   0  0  1  0  0  3  0  0  0  0  0  0
    2.2207   -0.6048    0.9006 C   0  0  1  0  0  3  0  0  0  0  0  0
    1.9892   -1.1831   -0.3706 C   0  0  2  0  0  3  0  0  0  0  0  0
    0.6419   -1.9422   -0.2617 C   0  0  1  0  0  0  0  0  0  0  0  0
    0.3458   -1.9325    1.2363 C   0  0  0  0  0  0  0  0  0  0  0  0
    1.2208   -1.0890    1.8732 C   0  0  0  0  0  0  0  0  0  0  0  0
    3.4807    0.0712    1.3527 C   0  0  0  0  0  0  0  0  0  0  0  0
    4.0727   -0.6284    1.9821 H   0  0  0  0  0  0  0  0  0  0  0  0
    3.2697    0.9485    1.9994 H   0  0  0  0  0  0  0  0  0  0  0  0
    4.1312    0.3753    0.5111 H   0  0  0  0  0  0  0  0  0  0  0  0
    3.0432   -1.4958   -1.3956 C   0  0  0  0  0  0  0  0  0  0  0  0
    3.9044   -0.8029   -1.3327 H   0  0  0  0  0  0  0  0  0  0  0  0
    2.6609   -1.4669   -2.4339 H   0  0  0  0  0  0  0  0  0  0  0  0
    3.4359   -2.5231   -1.2296 H   0  0  0  0  0  0  0  0  0  0  0  0
    0.6115   -3.3506   -0.8627 C   0  0  0  0  0  0  0  0  0  0  0  0
    1.3076   -4.0155   -0.3132 H   0  0  0  0  0  0  0  0  0  0  0  0
    0.9070   -3.3560   -1.9287 H   0  0  0  0  0  0  0  0  0  0  0  0
   -0.4023   -3.7901   -0.7857 H   0  0  0  0  0  0  0  0  0  0  0  0
   -0.7570   -2.7258    1.8483 C   0  0  0  0  0  0  0  0  0  0  0  0
   -0.8951   -2.4877    2.9192 H   0  0  0  0  0  0  0  0  0  0  0  0
   -0.5397   -3.8137    1.7731 H   0  0  0  0  0  0  0  0  0  0  0  0
   -1.7243   -2.5675    1.3298 H   0  0  0  0  0  0  0  0  0  0  0  0
    1.2409   -0.6820    3.3136 C   0  0  0  0  0  0  0  0  0  0  0  0
    0.4144   -1.1432    3.8847 H   0  0  0  0  0  0  0  0  0  0  0  0
    1.1462    0.4204    3.4216 H   0  0  0  0  0  0  0  0  0  0  0  0
    2.1912   -0.9675    3.8114 H   0  0  0  0  0  0  0  0  0  0  0  0
   -0.2338   -0.9769   -2.5185 C   0  0  0  0  0  0  0  0  0  0  0  0
   -0.7014   -1.9129   -2.8921 H   0  0  0  0  0  0  0  0  0  0  0  0
    0.7957   -0.9576   -2.9224 H   0  0  0  0  0  0  0  0  0  0  0  0
   -0.8018   -0.1461   -2.9843 H   0  0  0  0  0  0  0  0  0  0  0  0
  1 17  1  0  0  0  0
  2  1  1  0  0  0  0
  3  1  1  0  0  0  0
  4 12  1  0  0  0  0
  4 14  1  0  0  0  0
  5  4  2  0  0  0  0
  6  8  2  0  0  0  0
  6  5  1  0  0  0  0
  7  6  1  0  0  0  0
  8 10  1  0  0  0  0
  9  8  1  0  0  0  0
 10 11  1  0  0  0  0
 10 12  2  0  0  0  0
 12 13  1  0  0  0  0
 14 15  1  0  0  0  0
 14 16  1  0  0  0  0
 17 18  1  0  0  0  0
 17 14  1  0  0  0  0
 18 19  1  0  0  0  0
 18 20  1  0  0  0  0
 21 18  1  0  0  0  0
 22 17  1  0  0  0  0
 22 24  1  0  0  0  0
 23 22  1  0  0  0  0
 25 22  1  0  0  0  0
 26 52  1  6  0  0  0
 26  5  1  0  0  0  0
 26 29  1  0  0  0  0
 27 32  1  1  0  0  0
 27 31  1  0  0  0  0
 28 36  1  1  0  0  0
 28 29  1  0  0  0  0
 28 27  1  0  0  0  0
 29 40  1  6  0  0  0
 29 30  1  0  0  0  0
 30 44  1  0  0  0  0
 30 31  2  0  0  0  0
 31 48  1  0  0  0  0
 32 33  1  0  0  0  0
 32 34  1  0  0  0  0
 35 32  1  0  0  0  0
 36 37  1  0  0  0  0
 36 39  1  0  0  0  0
 38 36  1  0  0  0  0
 40 43  1  0  0  0  0
 40 41  1  0  0  0  0
 42 40  1  0  0  0  0
 44 45  1  0  0  0  0
 46 44  1  0  0  0  0
 47 44  1  0  0  0  0
 48 50  1  0  0  0  0
 48 51  1  0  0  0  0
 48 49  1  0  0  0  0
 53 52  1  0  0  0  0
 54 52  1  0  0  0  0
 55 52  1  0  0  0  0
M  END
