1,4,13
 OpenBabel05122313063D

 31 33  0  0  1  0  0  0  0  0999 V2000
    0.0002    1.1714   -0.0319 N   0  0  0  0  0  2  0  0  0  0  0  0
    1.1764    1.8143    0.0020 C   0  0  2  0  0  3  0  0  0  0  0  0
    2.2552    0.9070   -0.0080 N   0  0  0  0  0  0  0  0  0  0  0  0
    1.9988   -0.4727   -0.0066 C   0  0  0  0  0  2  0  0  0  0  0  0
    3.2356   -1.0241   -0.0639 N   0  0  0  0  0  0  0  0  0  0  0  0
    3.5023   -2.4592   -0.0810 C   0  0  0  0  0  0  0  0  0  0  0  0
    4.2356   -0.0505   -0.0855 C   0  0  0  0  0  0  0  0  0  0  0  0
    3.6206    1.1702   -0.0519 C   0  0  0  0  0  0  0  0  0  0  0  0
    1.2299    3.2139    0.0469 C   0  0  0  0  0  0  0  0  0  0  0  0
    0.0004    3.8982    0.0645 C   0  0  0  0  0  0  0  0  0  0  0  0
   -1.1759    1.8145    0.0017 C   0  0  0  0  0  0  0  0  0  0  0  0
   -2.2548    0.9074   -0.0084 N   0  0  0  0  0  0  0  0  0  0  0  0
   -1.9988   -0.4724   -0.0066 C   0  0  0  0  0  2  0  0  0  0  0  0
   -3.2357   -1.0234   -0.0637 N   0  0  0  0  0  0  0  0  0  0  0  0
   -3.5030   -2.4584   -0.0804 C   0  0  0  0  0  0  0  0  0  0  0  0
   -4.2355   -0.0496   -0.0856 C   0  0  0  0  0  0  0  0  0  0  0  0
   -3.6202    1.1709   -0.0525 C   0  0  0  0  0  0  0  0  0  0  0  0
   -1.2291    3.2142    0.0466 C   0  0  0  0  0  0  0  0  0  0  0  0
    2.6314   -2.9805   -0.5112 H   0  0  0  0  0  0  0  0  0  0  0  0
    3.6812   -2.8319    0.9468 H   0  0  0  0  0  0  0  0  0  0  0  0
    4.3946   -2.6573   -0.7025 H   0  0  0  0  0  0  0  0  0  0  0  0
    5.2988   -0.3067   -0.1297 H   0  0  0  0  0  0  0  0  0  0  0  0
    4.0409    2.1794   -0.0670 H   0  0  0  0  0  0  0  0  0  0  0  0
    2.1816    3.7598    0.0732 H   0  0  0  0  0  0  0  0  0  0  0  0
    0.0005    4.9972    0.1005 H   0  0  0  0  0  0  0  0  0  0  0  0
   -2.6253   -2.9813   -0.4941 H   0  0  0  0  0  0  0  0  0  0  0  0
   -4.3850   -2.6585   -0.7159 H   0  0  0  0  0  0  0  0  0  0  0  0
   -3.6992   -2.8273    0.9457 H   0  0  0  0  0  0  0  0  0  0  0  0
   -5.2988   -0.3056   -0.1298 H   0  0  0  0  0  0  0  0  0  0  0  0
   -4.0403    2.1802   -0.0678 H   0  0  0  0  0  0  0  0  0  0  0  0
   -2.1807    3.7602    0.0726 H   0  0  0  0  0  0  0  0  0  0  0  0
  1 11  1  0  0  0  0
  1  2  1  0  0  0  0
  2  3  1  1  0  0  0
  2  9  1  0  0  0  0
  3  4  1  0  0  0  0
  5  4  1  0  0  0  0
  6  5  1  0  0  0  0
  6 20  1  0  0  0  0
  7  5  1  0  0  0  0
  7  8  2  0  0  0  0
  8  3  1  0  0  0  0
  9 10  2  0  0  0  0
  9 24  1  0  0  0  0
 10 25  1  0  0  0  0
 11 18  2  0  0  0  0
 12 13  1  0  0  0  0
 12 11  1  0  0  0  0
 14 13  1  0  0  0  0
 15 14  1  0  0  0  0
 15 28  1  0  0  0  0
 16 14  1  0  0  0  0
 16 17  2  0  0  0  0
 17 12  1  0  0  0  0
 18 10  1  0  0  0  0
 18 31  1  0  0  0  0
 19  6  1  0  0  0  0
 21  6  1  0  0  0  0
 22  7  1  0  0  0  0
 23  8  1  0  0  0  0
 26 15  1  0  0  0  0
 27 15  1  0  0  0  0
 29 16  1  0  0  0  0
 30 17  1  0  0  0  0
M  END
