1,5,16
 OpenBabel05122313063D

 37 39  0  0  1  0  0  0  0  0999 V2000
    0.0000    1.4711    0.0000 N   0  0  0  0  0  2  0  0  0  0  0  0
   -0.9030    2.1529    0.7538 C   0  0  1  0  0  3  0  0  0  0  0  0
   -2.6462    0.4149    0.7507 N   0  0  0  0  0  0  0  0  0  0  0  0
   -1.8800    1.3404    1.5785 C   0  0  0  0  0  0  0  0  0  0  0  0
   -2.0320   -0.5339   -0.0156 C   0  0  0  0  0  2  0  0  0  0  0  0
   -3.0457   -1.1713   -0.6608 N   0  0  0  0  0  0  0  0  0  0  0  0
   -2.8892   -2.2345   -1.6511 C   0  0  0  0  0  0  0  0  0  0  0  0
   -4.2741   -0.6292   -0.3000 C   0  0  0  0  0  0  0  0  0  0  0  0
   -4.0253    0.3800    0.5938 C   0  0  0  0  0  0  0  0  0  0  0  0
   -0.9255    3.5545    0.7700 C   0  0  0  0  0  0  0  0  0  0  0  0
   -0.0001    4.2687   -0.0001 C   0  0  0  0  0  0  0  0  0  0  0  0
    0.9030    2.1529   -0.7538 C   0  0  0  0  0  0  0  0  0  0  0  0
    0.9254    3.5544   -0.7701 C   0  0  0  0  0  0  0  0  0  0  0  0
    2.6462    0.4148   -0.7507 N   0  0  0  0  0  0  0  0  0  0  0  0
    1.8800    1.3404   -1.5785 C   0  0  0  0  0  0  0  0  0  0  0  0
    2.0320   -0.5340    0.0155 C   0  0  0  0  0  2  0  0  0  0  0  0
    3.0456   -1.1712    0.6610 N   0  0  0  0  0  0  0  0  0  0  0  0
    2.8891   -2.2343    1.6513 C   0  0  0  0  0  0  0  0  0  0  0  0
    4.2740   -0.6291    0.3003 C   0  0  0  0  0  0  0  0  0  0  0  0
    4.0253    0.3800   -0.5937 C   0  0  0  0  0  0  0  0  0  0  0  0
   -2.5832    2.0113    2.1030 H   0  0  0  0  0  0  0  0  0  0  0  0
   -1.3230    0.7591    2.3443 H   0  0  0  0  0  0  0  0  0  0  0  0
   -3.6535   -3.0137   -1.4739 H   0  0  0  0  0  0  0  0  0  0  0  0
   -1.8848   -2.6783   -1.5303 H   0  0  0  0  0  0  0  0  0  0  0  0
   -3.0135   -1.8240   -2.6724 H   0  0  0  0  0  0  0  0  0  0  0  0
   -5.2183   -1.0072   -0.7038 H   0  0  0  0  0  0  0  0  0  0  0  0
   -4.7049    1.0462    1.1338 H   0  0  0  0  0  0  0  0  0  0  0  0
   -1.6694    4.0773    1.3877 H   0  0  0  0  0  0  0  0  0  0  0  0
   -0.0001    5.3684   -0.0002 H   0  0  0  0  0  0  0  0  0  0  0  0
    1.6693    4.0773   -1.3879 H   0  0  0  0  0  0  0  0  0  0  0  0
    2.5832    2.0114   -2.1029 H   0  0  0  0  0  0  0  0  0  0  0  0
    1.3231    0.7591   -2.3444 H   0  0  0  0  0  0  0  0  0  0  0  0
    3.0137   -1.8238    2.6726 H   0  0  0  0  0  0  0  0  0  0  0  0
    3.6533   -3.0137    1.4740 H   0  0  0  0  0  0  0  0  0  0  0  0
    1.8847   -2.6781    1.5306 H   0  0  0  0  0  0  0  0  0  0  0  0
    5.2182   -1.0069    0.7042 H   0  0  0  0  0  0  0  0  0  0  0  0
    4.7050    1.0461   -1.1337 H   0  0  0  0  0  0  0  0  0  0  0  0
  1  2  1  0  0  0  0
  2 10  1  0  0  0  0
  2  4  1  1  0  0  0
  3  4  1  0  0  0  0
  4 21  1  0  0  0  0
  4 22  1  0  0  0  0
  5  3  1  0  0  0  0
  6  8  1  0  0  0  0
  6  5  1  0  0  0  0
  7 24  1  0  0  0  0
  7 23  1  0  0  0  0
  7  6  1  0  0  0  0
  8  9  2  0  0  0  0
  9  3  1  0  0  0  0
  9 27  1  0  0  0  0
 10 28  1  0  0  0  0
 11 10  2  0  0  0  0
 12  1  1  0  0  0  0
 13 12  2  0  0  0  0
 13 11  1  0  0  0  0
 14 20  1  0  0  0  0
 14 16  1  0  0  0  0
 15 12  1  0  0  0  0
 15 14  1  0  0  0  0
 16 17  1  0  0  0  0
 17 18  1  0  0  0  0
 18 33  1  0  0  0  0
 19 17  1  0  0  0  0
 19 36  1  0  0  0  0
 20 19  2  0  0  0  0
 25  7  1  0  0  0  0
 26  8  1  0  0  0  0
 29 11  1  0  0  0  0
 30 13  1  0  0  0  0
 31 15  1  0  0  0  0
 32 15  1  0  0  0  0
 34 18  1  0  0  0  0
 35 18  1  0  0  0  0
 37 20  1  0  0  0  0
M  END
