3,6,16
 OpenBabel05122313063D

 63 67  0  0  1  0  0  0  0  0999 V2000
   -3.0610    0.5642    0.0000 N   0  0  0  0  0  0  0  0  0  0  0  0
   -2.2368    2.5689   -0.0000 N   0  0  0  0  0  0  0  0  0  0  0  0
   -0.0004    2.8136   -0.0000 N   0  0  0  0  0  2  0  0  0  0  0  0
    2.2361    2.5695   -0.0000 N   0  0  0  0  0  0  0  0  0  0  0  0
    3.0608    0.5651   -0.0000 N   0  0  0  0  0  0  0  0  0  0  0  0
   -1.8788    1.2221   -0.0000 C   0  0  0  0  0  2  0  0  0  0  0  0
   -4.1335    1.4623    0.0001 C   0  0  0  0  0  0  0  0  0  0  0  0
   -3.6186    2.7316    0.0001 C   0  0  0  0  0  0  0  0  0  0  0  0
   -1.1780    3.4833   -0.0000 C   0  0  2  0  0  3  0  0  0  0  0  0
   -1.2269    4.8803    0.0000 C   0  0  0  0  0  0  0  0  0  0  0  0
   -0.0008    5.5704    0.0000 C   0  0  0  0  0  0  0  0  0  0  0  0
    1.2255    4.8806    0.0000 C   0  0  0  0  0  0  0  0  0  0  0  0
    1.1770    3.4836   -0.0000 C   0  0  0  0  0  0  0  0  0  0  0  0
    3.6178    2.7326   -0.0000 C   0  0  0  0  0  0  0  0  0  0  0  0
    4.1330    1.4634   -0.0000 C   0  0  0  0  0  0  0  0  0  0  0  0
    1.8784    1.2226   -0.0000 C   0  0  0  0  0  2  0  0  0  0  0  0
   -3.2353   -0.8714   -0.0000 C   0  0  0  0  0  0  0  0  0  0  0  0
   -3.3085   -1.5379   -1.2394 C   0  0  0  0  0  0  0  0  0  0  0  0
   -3.5001   -2.9290   -1.2094 C   0  0  0  0  0  0  0  0  0  0  0  0
   -3.6071   -3.6418   -0.0000 C   0  0  0  0  0  0  0  0  0  0  0  0
   -3.5003   -2.9289    1.2093 C   0  0  0  0  0  0  0  0  0  0  0  0
   -3.3087   -1.5379    1.2393 C   0  0  0  0  0  0  0  0  0  0  0  0
   -3.1068   -0.7977   -2.5346 C   0  0  0  0  0  0  0  0  0  0  0  0
   -3.8482   -5.1288   -0.0000 C   0  0  0  0  0  0  0  0  0  0  0  0
   -3.1072   -0.7977    2.5346 C   0  0  0  0  0  0  0  0  0  0  0  0
    3.2355   -0.8705    0.0000 C   0  0  0  0  0  0  0  0  0  0  0  0
    3.3090   -1.5370    1.2394 C   0  0  0  0  0  0  0  0  0  0  0  0
    3.5011   -2.9280    1.2094 C   0  0  0  0  0  0  0  0  0  0  0  0
    3.6082   -3.6408    0.0001 C   0  0  0  0  0  0  0  0  0  0  0  0
    3.5010   -2.9280   -1.2093 C   0  0  0  0  0  0  0  0  0  0  0  0
    3.3090   -1.5370   -1.2393 C   0  0  0  0  0  0  0  0  0  0  0  0
    3.1073   -0.7968    2.5346 C   0  0  0  0  0  0  0  0  0  0  0  0
    3.8498   -5.1277    0.0001 C   0  0  0  0  0  0  0  0  0  0  0  0
    3.1071   -0.7969   -2.5345 C   0  0  0  0  0  0  0  0  0  0  0  0
   -5.1690    1.1083    0.0001 H   0  0  0  0  0  0  0  0  0  0  0  0
   -4.1136    3.7068    0.0001 H   0  0  0  0  0  0  0  0  0  0  0  0
   -2.1845    5.4166    0.0000 H   0  0  0  0  0  0  0  0  0  0  0  0
   -0.0009    6.6697    0.0000 H   0  0  0  0  0  0  0  0  0  0  0  0
    2.1829    5.4172    0.0000 H   0  0  0  0  0  0  0  0  0  0  0  0
    4.1125    3.7079   -0.0001 H   0  0  0  0  0  0  0  0  0  0  0  0
    5.1686    1.1097   -0.0000 H   0  0  0  0  0  0  0  0  0  0  0  0
   -3.5574   -3.4740   -2.1647 H   0  0  0  0  0  0  0  0  0  0  0  0
   -3.5578   -3.4740    2.1647 H   0  0  0  0  0  0  0  0  0  0  0  0
   -2.0456   -0.4801   -2.6253 H   0  0  0  0  0  0  0  0  0  0  0  0
   -3.3432   -1.4400   -3.4029 H   0  0  0  0  0  0  0  0  0  0  0  0
   -3.7305    0.1168   -2.6052 H   0  0  0  0  0  0  0  0  0  0  0  0
   -3.4170   -5.6130    0.8976 H   0  0  0  0  0  0  0  0  0  0  0  0
   -3.4190   -5.6127   -0.8986 H   0  0  0  0  0  0  0  0  0  0  0  0
   -4.9373   -5.3496    0.0012 H   0  0  0  0  0  0  0  0  0  0  0  0
   -3.3436   -1.4400    3.4028 H   0  0  0  0  0  0  0  0  0  0  0  0
   -2.0461   -0.4800    2.6254 H   0  0  0  0  0  0  0  0  0  0  0  0
   -3.7310    0.1167    2.6051 H   0  0  0  0  0  0  0  0  0  0  0  0
    3.5587   -3.4730    2.1648 H   0  0  0  0  0  0  0  0  0  0  0  0
    3.5586   -3.4731   -2.1646 H   0  0  0  0  0  0  0  0  0  0  0  0
    2.0462   -0.4791    2.6253 H   0  0  0  0  0  0  0  0  0  0  0  0
    3.3436   -1.4391    3.4029 H   0  0  0  0  0  0  0  0  0  0  0  0
    3.7311    0.1177    2.6052 H   0  0  0  0  0  0  0  0  0  0  0  0
    3.4195   -5.6120   -0.8979 H   0  0  0  0  0  0  0  0  0  0  0  0
    3.4200   -5.6119    0.8983 H   0  0  0  0  0  0  0  0  0  0  0  0
    4.9389   -5.3482   -0.0002 H   0  0  0  0  0  0  0  0  0  0  0  0
    3.7308    0.1176   -2.6053 H   0  0  0  0  0  0  0  0  0  0  0  0
    3.3435   -1.4393   -3.4028 H   0  0  0  0  0  0  0  0  0  0  0  0
    2.0460   -0.4794   -2.6252 H   0  0  0  0  0  0  0  0  0  0  0  0
  1  7  1  0  0  0  0
  2  8  1  0  0  0  0
  3 13  1  0  0  0  0
  3  9  1  0  0  0  0
  4 13  1  0  0  0  0
  4 16  1  0  0  0  0
  5 16  1  0  0  0  0
  5 26  1  0  0  0  0
  6  2  1  0  0  0  0
  6  1  1  0  0  0  0
  7 35  1  0  0  0  0
  8  7  2  0  0  0  0
  8 36  1  0  0  0  0
  9  2  1  1  0  0  0
  9 10  1  0  0  0  0
 10 11  2  0  0  0  0
 10 37  1  0  0  0  0
 11 38  1  0  0  0  0
 12 39  1  0  0  0  0
 12 11  1  0  0  0  0
 13 12  2  0  0  0  0
 14  4  1  0  0  0  0
 15 14  2  0  0  0  0
 15  5  1  0  0  0  0
 17  1  1  0  0  0  0
 17 22  1  0  0  0  0
 18 19  1  0  0  0  0
 18 17  2  0  0  0  0
 19 20  2  0  0  0  0
 20 24  1  0  0  0  0
 20 21  1  0  0  0  0
 21 22  2  0  0  0  0
 21 43  1  0  0  0  0
 22 25  1  0  0  0  0
 23 18  1  0  0  0  0
 24 49  1  0  0  0  0
 24 47  1  0  0  0  0
 25 52  1  0  0  0  0
 25 51  1  0  0  0  0
 25 50  1  0  0  0  0
 26 27  1  0  0  0  0
 27 32  1  0  0  0  0
 28 27  2  0  0  0  0
 28 53  1  0  0  0  0
 29 33  1  0  0  0  0
 29 28  1  0  0  0  0
 30 29  2  0  0  0  0
 31 30  1  0  0  0  0
 31 26  2  0  0  0  0
 32 57  1  0  0  0  0
 32 55  1  0  0  0  0
 32 56  1  0  0  0  0
 33 59  1  0  0  0  0
 34 31  1  0  0  0  0
 40 14  1  0  0  0  0
 41 15  1  0  0  0  0
 42 19  1  0  0  0  0
 44 23  1  0  0  0  0
 45 23  1  0  0  0  0
 46 23  1  0  0  0  0
 48 24  1  0  0  0  0
 54 30  1  0  0  0  0
 58 33  1  0  0  0  0
 60 33  1  0  0  0  0
 61 34  1  0  0  0  0
 62 34  1  0  0  0  0
 63 34  1  0  0  0  0
M  END
