2,30,50
 OpenBabel05122313063D

 65 70  0  0  0  0  0  0  0  0999 V2000
    0.5198   -1.6740    2.6197 O   0  0  0  0  0  0  0  0  0  0  0  0
   -2.1751   -2.2331   -0.4124 N   0  0  0  0  0  2  0  0  0  0  0  0
   -2.0980    0.6079   -0.2872 N   0  0  0  0  0  0  0  0  0  0  0  0
   -0.5998    0.9281    1.2748 N   0  0  0  0  0  0  0  0  0  0  0  0
    2.4534   -1.4897    0.3544 N   0  0  0  0  0  0  0  0  0  0  0  0
    1.9676    0.0198   -1.1573 N   0  0  0  0  0  0  0  0  0  0  0  0
    1.3574    2.6395   -0.5215 N   0  0  0  0  0  0  0  0  0  0  0  0
   -2.4196   -3.4898    0.0225 C   0  0  0  0  0  3  0  0  0  0  0  0
   -1.5427   -4.0576    0.3633 H   0  0  0  0  0  0  0  0  0  0  0  0
   -3.7024   -4.0459   -0.0060 C   0  0  0  0  0  0  0  0  0  0  0  0
   -3.8561   -5.0704    0.3605 H   0  0  0  0  0  0  0  0  0  0  0  0
   -4.7628   -3.2845   -0.5138 C   0  0  0  0  0  0  0  0  0  0  0  0
   -5.7817   -3.6965   -0.5583 H   0  0  0  0  0  0  0  0  0  0  0  0
   -4.5033   -1.9813   -0.9625 C   0  0  0  0  0  0  0  0  0  0  0  0
   -5.3079   -1.3499   -1.3660 H   0  0  0  0  0  0  0  0  0  0  0  0
   -3.1967   -1.4826   -0.8904 C   0  0  0  0  0  0  0  0  0  0  0  0
   -2.8339   -0.0841   -1.3358 C   0  0  0  0  0  0  0  0  0  0  0  0
   -2.2111   -0.1312   -2.2561 H   0  0  0  0  0  0  0  0  0  0  0  0
   -3.7436    0.4945   -1.5745 H   0  0  0  0  0  0  0  0  0  0  0  0
   -2.4573    1.8020    0.3350 C   0  0  0  0  0  0  0  0  0  0  0  0
   -3.4928    2.7192    0.1090 C   0  0  0  0  0  0  0  0  0  0  0  0
   -4.2401    2.5704   -0.6831 H   0  0  0  0  0  0  0  0  0  0  0  0
   -3.5378    3.8470    0.9409 C   0  0  0  0  0  0  0  0  0  0  0  0
   -4.3368    4.5886    0.7975 H   0  0  0  0  0  0  0  0  0  0  0  0
   -2.5835    4.0462    1.9633 C   0  0  0  0  0  0  0  0  0  0  0  0
   -2.6560    4.9392    2.6007 H   0  0  0  0  0  0  0  0  0  0  0  0
   -1.5467    3.1294    2.1867 C   0  0  0  0  0  0  0  0  0  0  0  0
   -0.8101    3.2976    2.9844 H   0  0  0  0  0  0  0  0  0  0  0  0
   -1.4926    2.0050    1.3506 C   0  0  0  0  0  0  0  0  0  0  0  0
   -0.9682    0.0678    0.2763 C   0  0  0  0  0  2  0  0  0  0  0  0
    0.3287   -0.3938    3.1863 C   0  0  0  0  0  0  0  0  0  0  0  0
    1.0176   -0.2321    4.0468 H   0  0  0  0  0  0  0  0  0  0  0  0
   -0.7075   -0.3608    3.5835 H   0  0  0  0  0  0  0  0  0  0  0  0
    1.8492   -2.1801    2.6650 C   0  0  0  0  0  0  0  0  0  0  0  0
    1.8811   -3.0694    3.3350 H   0  0  0  0  0  0  0  0  0  0  0  0
    2.5502   -1.4232    3.0845 H   0  0  0  0  0  0  0  0  0  0  0  0
    2.3140   -2.6074    1.2785 C   0  0  0  0  0  0  0  0  0  0  0  0
    3.2931   -3.1204    1.3512 H   0  0  0  0  0  0  0  0  0  0  0  0
    1.5980   -3.3181    0.8196 H   0  0  0  0  0  0  0  0  0  0  0  0
    3.6436   -0.8006    0.0919 C   0  0  0  0  0  0  0  0  0  0  0  0
    4.9444   -0.9362    0.5979 C   0  0  0  0  0  0  0  0  0  0  0  0
    5.1985   -1.6917    1.3544 H   0  0  0  0  0  0  0  0  0  0  0  0
    5.9159   -0.0601    0.0926 C   0  0  0  0  0  0  0  0  0  0  0  0
    6.9485   -0.1340    0.4631 H   0  0  0  0  0  0  0  0  0  0  0  0
    5.5983    0.9160   -0.8789 C   0  0  0  0  0  0  0  0  0  0  0  0
    6.3889    1.5877   -1.2436 H   0  0  0  0  0  0  0  0  0  0  0  0
    4.2976    1.0530   -1.3835 C   0  0  0  0  0  0  0  0  0  0  0  0
    4.0490    1.8255   -2.1236 H   0  0  0  0  0  0  0  0  0  0  0  0
    3.3287    0.1747   -0.8824 C   0  0  0  0  0  0  0  0  0  0  0  0
    1.4319   -0.9768   -0.3938 C   0  0  0  0  0  2  0  0  0  0  0  0
    1.2180    0.7950   -2.1255 C   0  0  0  0  0  0  0  0  0  0  0  0
    0.3652    0.1720   -2.4596 H   0  0  0  0  0  0  0  0  0  0  0  0
    1.8647    0.9508   -3.0158 H   0  0  0  0  0  0  0  0  0  0  0  0
    0.7351    2.1394   -1.6010 C   0  0  0  0  0  0  0  0  0  0  0  0
   -0.3010    2.8212   -2.2669 C   0  0  0  0  0  0  0  0  0  0  0  0
   -0.7887    2.3737   -3.1471 H   0  0  0  0  0  0  0  0  0  0  0  0
   -0.6912    4.0805   -1.7915 C   0  0  0  0  0  0  0  0  0  0  0  0
   -1.4995    4.6389   -2.2869 H   0  0  0  0  0  0  0  0  0  0  0  0
   -0.0321    4.6146   -0.6753 C   0  0  0  0  0  0  0  0  0  0  0  0
   -0.3028    5.5991   -0.2683 H   0  0  0  0  0  0  0  0  0  0  0  0
    0.9814    3.8505   -0.0775 C   0  0  0  0  0  0  0  0  0  0  0  0
    1.5187    4.2333    0.8080 H   0  0  0  0  0  0  0  0  0  0  0  0
    0.5234    0.7569    2.1905 C   0  0  0  0  0  0  0  0  0  0  0  0
    0.6297    1.7065    2.7477 H   0  0  0  0  0  0  0  0  0  0  0  0
    1.4534    0.6388    1.6022 H   0  0  0  0  0  0  0  0  0  0  0  0
  1 34  1  0  0  0  0
  1 31  1  0  0  0  0
  2  8  1  0  0  0  0
  3 30  1  0  0  0  0
  3 20  1  0  0  0  0
  4 29  1  0  0  0  0
  4 63  1  0  0  0  0
  5 37  1  0  0  0  0
  6 49  1  0  0  0  0
  6 50  1  0  0  0  0
  7 61  1  0  0  0  0
  8  9  1  0  0  0  0
 10  8  1  0  0  0  0
 10 11  1  0  0  0  0
 12 10  2  0  0  0  0
 13 12  1  0  0  0  0
 14 16  2  0  0  0  0
 14 12  1  0  0  0  0
 15 14  1  0  0  0  0
 16  2  1  0  0  0  0
 17 16  1  0  0  0  0
 17  3  1  0  0  0  0
 18 17  1  0  0  0  0
 19 17  1  0  0  0  0
 20 29  1  0  0  0  0
 21 20  2  0  0  0  0
 21 23  1  0  0  0  0
 22 21  1  0  0  0  0
 23 25  2  0  0  0  0
 24 23  1  0  0  0  0
 25 27  1  0  0  0  0
 25 26  1  0  0  0  0
 27 28  1  0  0  0  0
 29 27  2  0  0  0  0
 30  4  1  0  0  0  0
 31 33  1  0  0  0  0
 31 32  1  0  0  0  0
 34 36  1  0  0  0  0
 34 35  1  0  0  0  0
 37 38  1  0  0  0  0
 37 34  1  0  0  0  0
 39 37  1  0  0  0  0
 40  5  1  0  0  0  0
 40 41  1  0  0  0  0
 41 42  1  0  0  0  0
 43 44  1  0  0  0  0
 43 41  2  0  0  0  0
 45 43  1  0  0  0  0
 46 45  1  0  0  0  0
 47 49  1  0  0  0  0
 47 45  2  0  0  0  0
 48 47  1  0  0  0  0
 49 40  2  0  0  0  0
 50  5  1  0  0  0  0
 51 54  1  0  0  0  0
 51  6  1  0  0  0  0
 52 51  1  0  0  0  0
 53 51  1  0  0  0  0
 54  7  2  0  0  0  0
 55 57  2  0  0  0  0
 55 54  1  0  0  0  0
 56 55  1  0  0  0  0
 57 59  1  0  0  0  0
 58 57  1  0  0  0  0
 59 60  1  0  0  0  0
 59 61  2  0  0  0  0
 61 62  1  0  0  0  0
 63 64  1  0  0  0  0
 63 31  1  0  0  0  0
 65 63  1  0  0  0  0
M  END
