2,3,12
 OpenBabel05122313063D

 36 39  0  0  0  0  0  0  0  0999 V2000
   -0.6410   -3.9408   -0.2067 S   0  0  0  0  0  0  0  0  0  0  0  0
   -0.5370    0.0729   -0.0597 N   0  0  0  0  0  2  0  0  0  0  0  0
    1.1372   -1.9866   -0.1496 C   0  0  0  0  0  2  0  0  0  0  0  0
   -0.2474   -2.2390   -0.1191 C   0  0  0  0  0  0  0  0  0  0  0  0
   -3.3093    0.0470    0.0243 C   0  0  0  0  0  0  0  0  0  0  0  0
   -2.5941    1.2663    0.0336 C   0  0  0  0  0  0  0  0  0  0  0  0
   -3.1313    2.2200    0.1078 H   0  0  0  0  0  0  0  0  0  0  0  0
    1.5038    4.5714   -0.0462 C   0  0  0  0  0  0  0  0  0  0  0  0
    2.2160    5.4117   -0.0706 H   0  0  0  0  0  0  0  0  0  0  0  0
   -2.5853   -1.1626   -0.0234 C   0  0  0  0  0  0  0  0  0  0  0  0
   -3.1041   -2.1300   -0.0622 H   0  0  0  0  0  0  0  0  0  0  0  0
    1.1289    2.1289   -0.0323 C   0  0  0  0  0  3  0  0  0  0  0  0
   -7.6234    0.0261    0.1432 C   0  0  0  0  0  0  0  0  0  0  0  0
   -8.7234    0.0206    0.1731 H   0  0  0  0  0  0  0  0  0  0  0  0
   -5.4938   -0.9846    0.7414 C   0  0  0  0  0  0  0  0  0  0  0  0
   -4.9309   -1.7710    1.2660 H   0  0  0  0  0  0  0  0  0  0  0  0
   -4.7925    0.0399    0.0658 C   0  0  0  0  0  0  0  0  0  0  0  0
    0.1245    4.8253   -0.0034 C   0  0  0  0  0  0  0  0  0  0  0  0
   -0.2552    5.8579    0.0097 H   0  0  0  0  0  0  0  0  0  0  0  0
   -1.1793   -1.1364   -0.0621 C   0  0  0  0  0  0  0  0  0  0  0  0
   -6.8942   -0.9896    0.7818 C   0  0  0  0  0  0  0  0  0  0  0  0
   -7.4208   -1.7904    1.3229 H   0  0  0  0  0  0  0  0  0  0  0  0
   -1.1892    1.2629   -0.0085 C   0  0  0  0  0  0  0  0  0  0  0  0
   -5.5397    1.0573   -0.5703 C   0  0  0  0  0  0  0  0  0  0  0  0
   -5.0138    1.8478   -1.1262 H   0  0  0  0  0  0  0  0  0  0  0  0
   -0.2810    2.4219   -0.0030 C   0  0  0  0  0  0  0  0  0  0  0  0
   -0.7658    3.7451    0.0143 C   0  0  0  0  0  0  0  0  0  0  0  0
   -1.8497    3.9381    0.0363 H   0  0  0  0  0  0  0  0  0  0  0  0
   -6.9402    1.0486   -0.5343 C   0  0  0  0  0  0  0  0  0  0  0  0
   -7.5034    1.8434   -1.0465 H   0  0  0  0  0  0  0  0  0  0  0  0
    1.9850    3.2494   -0.0612 C   0  0  0  0  0  0  0  0  0  0  0  0
    3.0735    3.1082   -0.1051 H   0  0  0  0  0  0  0  0  0  0  0  0
    1.8600   -3.2149   -0.2593 C   0  0  0  0  0  0  0  0  0  0  0  0
    2.9548   -3.2655   -0.3467 H   0  0  0  0  0  0  0  0  0  0  0  0
    1.0434   -4.3370   -0.2924 C   0  0  0  0  0  0  0  0  0  0  0  0
    1.3392   -5.3910   -0.3768 H   0  0  0  0  0  0  0  0  0  0  0  0
  1  4  1  0  0  0  0
  2 23  1  0  0  0  0
  3  4  1  0  0  0  0
  4 20  2  0  0  0  0
  5  6  1  0  0  0  0
  5 17  1  0  0  0  0
  6  7  1  0  0  0  0
  8 18  1  0  0  0  0
  9  8  1  0  0  0  0
 10  5  2  0  0  0  0
 11 10  1  0  0  0  0
 12 26  2  0  0  0  0
 13 14  1  0  0  0  0
 13 21  1  0  0  0  0
 15 21  2  0  0  0  0
 15 16  1  0  0  0  0
 17 15  1  0  0  0  0
 18 19  1  0  0  0  0
 18 27  2  0  0  0  0
 20  2  1  0  0  0  0
 20 10  1  0  0  0  0
 21 22  1  0  0  0  0
 23 26  1  0  0  0  0
 23  6  2  0  0  0  0
 24 29  1  0  0  0  0
 24 17  2  0  0  0  0
 25 24  1  0  0  0  0
 26 27  1  0  0  0  0
 27 28  1  0  0  0  0
 29 13  2  0  0  0  0
 30 29  1  0  0  0  0
 31  8  2  0  0  0  0
 31 12  1  0  0  0  0
 32 31  1  0  0  0  0
 33  3  1  0  0  0  0
 34 33  1  0  0  0  0
 35 33  2  0  0  0  0
 35  1  1  0  0  0  0
 36 35  1  0  0  0  0
M  END
