2,12,29
 OpenBabel05122313063D

 31 32  0  0  0  0  0  0  0  0999 V2000
   -5.1994    0.9882    0.2067 F   0  0  0  0  0  0  0  0  0  0  0  0
    1.0153    1.2863   -0.0532 N   0  0  0  0  0  2  0  0  0  0  0  0
    2.3706    1.3452   -0.0525 C   0  0  0  0  0  0  0  0  0  0  0  0
    2.9952    2.5978   -0.1483 C   0  0  0  0  0  0  0  0  0  0  0  0
    4.0908    2.6646   -0.1626 H   0  0  0  0  0  0  0  0  0  0  0  0
    2.1986    3.7539   -0.2115 C   0  0  0  0  0  0  0  0  0  0  0  0
    2.6751    4.7432   -0.2875 H   0  0  0  0  0  0  0  0  0  0  0  0
    0.8041    3.6581   -0.1670 C   0  0  0  0  0  0  0  0  0  0  0  0
    0.1775    4.5592   -0.1999 H   0  0  0  0  0  0  0  0  0  0  0  0
    0.1996    2.3877   -0.0840 C   0  0  0  0  0  0  0  0  0  0  0  0
   -1.2288    2.0736   -0.0182 C   0  0  0  0  0  0  0  0  0  0  0  0
   -1.5619    0.6755    0.0462 C   0  0  0  0  0  2  0  0  0  0  0  0
   -2.9232    0.3313    0.1183 C   0  0  0  0  0  0  0  0  0  0  0  0
   -3.2303   -0.7261    0.1567 H   0  0  0  0  0  0  0  0  0  0  0  0
   -3.8988    1.3363    0.1321 C   0  0  0  0  0  0  0  0  0  0  0  0
   -3.5814    2.7031    0.0697 C   0  0  0  0  0  0  0  0  0  0  0  0
   -4.3875    3.4498    0.0818 H   0  0  0  0  0  0  0  0  0  0  0  0
   -2.2340    3.0656   -0.0082 C   0  0  0  0  0  0  0  0  0  0  0  0
   -1.9713    4.1339   -0.0607 H   0  0  0  0  0  0  0  0  0  0  0  0
    3.0690    0.0050    0.1574 C   0  0  0  0  0  0  0  0  0  0  0  0
    4.4540   -0.0262   -0.5131 C   0  0  0  0  0  0  0  0  0  0  0  0
    4.3775    0.1731   -1.6010 H   0  0  0  0  0  0  0  0  0  0  0  0
    4.9018   -1.0318   -0.3826 H   0  0  0  0  0  0  0  0  0  0  0  0
    5.1614    0.7083   -0.0734 H   0  0  0  0  0  0  0  0  0  0  0  0
    3.2366   -0.1533    1.6908 C   0  0  0  0  0  0  0  0  0  0  0  0
    3.8406    0.6696    2.1249 H   0  0  0  0  0  0  0  0  0  0  0  0
    3.7469   -1.1135    1.9115 H   0  0  0  0  0  0  0  0  0  0  0  0
    2.2463   -0.1667    2.1889 H   0  0  0  0  0  0  0  0  0  0  0  0
    2.1508   -1.1373   -0.3732 C   0  0  0  0  0  3  0  0  0  0  0  0
    2.2937   -1.2337   -1.4754 H   0  0  0  0  0  0  0  0  0  0  0  0
    2.5004   -2.0969    0.0705 H   0  0  0  0  0  0  0  0  0  0  0  0
  2  3  1  0  0  0  0
  3 20  1  0  0  0  0
  4  3  2  0  0  0  0
  5  4  1  0  0  0  0
  6  8  2  0  0  0  0
  6  4  1  0  0  0  0
  7  6  1  0  0  0  0
  8 10  1  0  0  0  0
  9  8  1  0  0  0  0
 10  2  1  0  0  0  0
 10 11  2  0  0  0  0
 11 18  1  0  0  0  0
 11 12  1  0  0  0  0
 12 13  1  0  0  0  0
 13 15  2  0  0  0  0
 13 14  1  0  0  0  0
 15  1  1  0  0  0  0
 16 17  1  0  0  0  0
 16 15  1  0  0  0  0
 18 16  2  0  0  0  0
 19 18  1  0  0  0  0
 20 25  1  0  0  0  0
 21 23  1  0  0  0  0
 21 24  1  0  0  0  0
 21 20  1  0  0  0  0
 22 21  1  0  0  0  0
 25 27  1  0  0  0  0
 25 26  1  0  0  0  0
 25 28  1  0  0  0  0
 29 31  1  0  0  0  0
 29 20  1  0  0  0  0
 30 29  1  0  0  0  0
M  END
