3,6,41
 OpenBabel05122313063D

 79 83  0  0  1  0  0  0  0  0999 V2000
    2.8692   -1.6522   -0.9902 N   0  0  0  0  0  0  0  0  0  0  0  0
    2.2902   -1.7418    1.1161 N   0  0  0  0  0  0  0  0  0  0  0  0
    0.7438    0.7269    1.4728 N   0  0  0  0  0  2  0  0  0  0  0  0
   -1.4037    2.1787    0.1077 N   0  0  0  0  0  0  0  0  0  0  0  0
   -2.8673    0.6241   -0.3612 N   0  0  0  0  0  0  0  0  0  0  0  0
    1.8756   -1.3323   -0.1210 C   0  0  0  0  0  2  0  0  0  0  0  0
    3.9327   -2.2592   -0.3099 C   0  0  0  0  0  0  0  0  0  0  0  0
    5.1649   -2.7611   -0.7539 C   0  0  0  0  0  0  0  0  0  0  0  0
    5.4583   -2.7185   -1.8117 H   0  0  0  0  0  0  0  0  0  0  0  0
    6.0093   -3.3220    0.2138 C   0  0  0  0  0  0  0  0  0  0  0  0
    6.9837   -3.7274   -0.0944 H   0  0  0  0  0  0  0  0  0  0  0  0
    5.6370   -3.3818    1.5762 C   0  0  0  0  0  0  0  0  0  0  0  0
    6.3279   -3.8328    2.3031 H   0  0  0  0  0  0  0  0  0  0  0  0
    4.4053   -2.8827    2.0230 C   0  0  0  0  0  0  0  0  0  0  0  0
    4.1229   -2.9407    3.0838 H   0  0  0  0  0  0  0  0  0  0  0  0
    3.5628   -2.3171    1.0559 C   0  0  0  0  0  0  0  0  0  0  0  0
    1.5066   -1.4488    2.3090 C   0  0  0  0  0  0  0  0  0  0  0  0
    2.0134   -1.8851    3.1876 H   0  0  0  0  0  0  0  0  0  0  0  0
    0.5096   -1.9291    2.2121 H   0  0  0  0  0  0  0  0  0  0  0  0
    1.3355    0.0460    2.4899 C   0  0  1  0  0  3  0  0  0  0  0  0
    1.7819    0.7079    3.6416 C   0  0  0  0  0  0  0  0  0  0  0  0
    2.2596    0.1320    4.4468 H   0  0  0  0  0  0  0  0  0  0  0  0
    1.6152    2.0942    3.7478 C   0  0  0  0  0  0  0  0  0  0  0  0
    1.9592    2.6329    4.6428 H   0  0  0  0  0  0  0  0  0  0  0  0
    1.0004    2.7812    2.6942 C   0  0  0  0  0  0  0  0  0  0  0  0
    0.8470    3.8686    2.7408 H   0  0  0  0  0  0  0  0  0  0  0  0
    0.5711    2.0718    1.5637 C   0  0  0  0  0  0  0  0  0  0  0  0
   -0.1030    2.7653    0.3981 C   0  0  0  0  0  0  0  0  0  0  0  0
   -0.2369    3.8380    0.6228 H   0  0  0  0  0  0  0  0  0  0  0  0
    0.5446    2.6883   -0.5012 H   0  0  0  0  0  0  0  0  0  0  0  0
   -2.6511    2.8036    0.1944 C   0  0  0  0  0  0  0  0  0  0  0  0
   -3.0475    4.1159    0.4879 C   0  0  0  0  0  0  0  0  0  0  0  0
   -2.3219    4.9100    0.7145 H   0  0  0  0  0  0  0  0  0  0  0  0
   -4.4245    4.3788    0.4783 C   0  0  0  0  0  0  0  0  0  0  0  0
   -4.7775    5.3953    0.7045 H   0  0  0  0  0  0  0  0  0  0  0  0
   -5.3688    3.3688    0.1833 C   0  0  0  0  0  0  0  0  0  0  0  0
   -6.4397    3.6181    0.1871 H   0  0  0  0  0  0  0  0  0  0  0  0
   -4.9728    2.0583   -0.1155 C   0  0  0  0  0  0  0  0  0  0  0  0
   -5.7098    1.2757   -0.3423 H   0  0  0  0  0  0  0  0  0  0  0  0
   -3.5955    1.7926   -0.1078 C   0  0  0  0  0  0  0  0  0  0  0  0
   -1.5377    0.8574   -0.2203 C   0  0  0  0  0  2  0  0  0  0  0  0
    2.9107   -1.2779   -2.4077 C   0  0  0  0  0  0  0  0  0  0  0  0
    1.8584   -1.2114   -2.7451 H   0  0  0  0  0  0  0  0  0  0  0  0
    3.3861   -2.1149   -2.9559 H   0  0  0  0  0  0  0  0  0  0  0  0
    3.6634    0.0362   -2.6467 C   0  0  0  0  0  0  0  0  0  0  0  0
    4.7176   -0.0624   -2.3058 H   0  0  0  0  0  0  0  0  0  0  0  0
    3.7107    0.1879   -3.7462 H   0  0  0  0  0  0  0  0  0  0  0  0
    3.0143    1.2554   -1.9865 C   0  0  0  0  0  0  0  0  0  0  0  0
    2.9660    1.0977   -0.8849 H   0  0  0  0  0  0  0  0  0  0  0  0
    1.9557    1.3283   -2.3257 H   0  0  0  0  0  0  0  0  0  0  0  0
    3.7406    2.5733   -2.2641 C   0  0  0  0  0  0  0  0  0  0  0  0
    4.7972    2.4920   -1.9233 H   0  0  0  0  0  0  0  0  0  0  0  0
    3.7924    2.7460   -3.3620 H   0  0  0  0  0  0  0  0  0  0  0  0
    3.0855    3.7849   -1.5932 C   0  0  0  0  0  0  0  0  0  0  0  0
    2.0355    3.8728   -1.9560 H   0  0  0  0  0  0  0  0  0  0  0  0
    3.0166    3.5974   -0.4961 H   0  0  0  0  0  0  0  0  0  0  0  0
    3.8229    5.1005   -1.8441 C   0  0  0  0  0  0  0  0  0  0  0  0
    3.3215    5.9561   -1.3492 H   0  0  0  0  0  0  0  0  0  0  0  0
    3.8778    5.3282   -2.9284 H   0  0  0  0  0  0  0  0  0  0  0  0
    4.8641    5.0563   -1.4635 H   0  0  0  0  0  0  0  0  0  0  0  0
   -3.4752   -0.6858   -0.6086 C   0  0  0  0  0  0  0  0  0  0  0  0
   -2.7715   -1.2508   -1.2499 H   0  0  0  0  0  0  0  0  0  0  0  0
   -4.3980   -0.5101   -1.1945 H   0  0  0  0  0  0  0  0  0  0  0  0
   -3.7649   -1.4425    0.6909 C   0  0  0  0  0  0  0  0  0  0  0  0
   -4.4217   -0.8263    1.3442 H   0  0  0  0  0  0  0  0  0  0  0  0
   -2.8019   -1.5644    1.2334 H   0  0  0  0  0  0  0  0  0  0  0  0
   -4.4038   -2.8162    0.4542 C   0  0  0  0  0  0  0  0  0  0  0  0
   -3.7371   -3.4230   -0.1985 H   0  0  0  0  0  0  0  0  0  0  0  0
   -4.4448   -3.3546    1.4254 H   0  0  0  0  0  0  0  0  0  0  0  0
   -5.8128   -2.7756   -0.1483 C   0  0  0  0  0  0  0  0  0  0  0  0
   -5.7892   -2.2956   -1.1527 H   0  0  0  0  0  0  0  0  0  0  0  0
   -6.4629   -2.1259    0.4821 H   0  0  0  0  0  0  0  0  0  0  0  0
   -6.4584   -4.1585   -0.2835 C   0  0  0  0  0  0  0  0  0  0  0  0
   -5.7993   -4.8063   -0.9029 H   0  0  0  0  0  0  0  0  0  0  0  0
   -6.4947   -4.6405    0.7187 H   0  0  0  0  0  0  0  0  0  0  0  0
   -7.8612   -4.1181   -0.8894 C   0  0  0  0  0  0  0  0  0  0  0  0
   -8.2996   -5.1323   -0.9721 H   0  0  0  0  0  0  0  0  0  0  0  0
   -7.8493   -3.6766   -1.9078 H   0  0  0  0  0  0  0  0  0  0  0  0
   -8.5511   -3.5062   -0.2716 H   0  0  0  0  0  0  0  0  0  0  0  0
  1  7  1  0  0  0  0
  1  6  1  0  0  0  0
  2 17  1  0  0  0  0
  3 27  1  0  0  0  0
  3 20  1  0  0  0  0
  4 31  1  0  0  0  0
  4 28  1  0  0  0  0
  5 41  1  0  0  0  0
  5 40  1  0  0  0  0
  6  2  1  0  0  0  0
  7 16  1  0  0  0  0
  8  7  2  0  0  0  0
  8 10  1  0  0  0  0
  9  8  1  0  0  0  0
 10 12  2  0  0  0  0
 11 10  1  0  0  0  0
 12 14  1  0  0  0  0
 12 13  1  0  0  0  0
 14 15  1  0  0  0  0
 16  2  1  0  0  0  0
 16 14  2  0  0  0  0
 17 18  1  0  0  0  0
 19 17  1  0  0  0  0
 20 17  1  6  0  0  0
 20 21  1  0  0  0  0
 21 23  2  0  0  0  0
 21 22  1  0  0  0  0
 23 24  1  0  0  0  0
 25 26  1  0  0  0  0
 25 23  1  0  0  0  0
 27 25  2  0  0  0  0
 28 29  1  0  0  0  0
 28 27  1  0  0  0  0
 30 28  1  0  0  0  0
 31 32  1  0  0  0  0
 32 33  1  0  0  0  0
 34 32  2  0  0  0  0
 34 35  1  0  0  0  0
 36 37  1  0  0  0  0
 36 34  1  0  0  0  0
 38 40  1  0  0  0  0
 38 36  2  0  0  0  0
 39 38  1  0  0  0  0
 40 31  2  0  0  0  0
 41  4  1  0  0  0  0
 42  1  1  0  0  0  0
 43 42  1  0  0  0  0
 44 42  1  0  0  0  0
 45 42  1  0  0  0  0
 45 46  1  0  0  0  0
 45 48  1  0  0  0  0
 47 45  1  0  0  0  0
 48 49  1  0  0  0  0
 50 48  1  0  0  0  0
 51 48  1  0  0  0  0
 51 52  1  0  0  0  0
 51 54  1  0  0  0  0
 53 51  1  0  0  0  0
 54 56  1  0  0  0  0
 55 54  1  0  0  0  0
 57 54  1  0  0  0  0
 57 60  1  0  0  0  0
 57 58  1  0  0  0  0
 59 57  1  0  0  0  0
 61  5  1  0  0  0  0
 61 64  1  0  0  0  0
 62 61  1  0  0  0  0
 63 61  1  0  0  0  0
 64 66  1  0  0  0  0
 64 65  1  0  0  0  0
 67 64  1  0  0  0  0
 67 69  1  0  0  0  0
 68 67  1  0  0  0  0
 70 67  1  0  0  0  0
 70 72  1  0  0  0  0
 71 70  1  0  0  0  0
 73 70  1  0  0  0  0
 73 75  1  0  0  0  0
 74 73  1  0  0  0  0
 76 73  1  0  0  0  0
 76 79  1  0  0  0  0
 77 76  1  0  0  0  0
 78 76  1  0  0  0  0
M  END
