2,3,15
 OpenBabel05122313063D

 29 31  0  0  0  0  0  0  0  0999 V2000
   -2.8918   -4.1104   -0.0002 F   0  0  0  0  0  0  0  0  0  0  0  0
    0.3357   -1.5124    0.0003 N   0  0  0  0  0  2  0  0  0  0  0  0
    1.7778    0.6667   -0.0004 C   0  0  0  0  0  3  0  0  0  0  0  0
    2.6108    1.8002   -0.0010 C   0  0  0  0  0  0  0  0  0  0  0  0
    2.1724    2.8059   -0.0014 H   0  0  0  0  0  0  0  0  0  0  0  0
    4.0316    1.7232   -0.0013 C   0  0  0  0  0  0  0  0  0  0  0  0
    4.6150    2.6587   -0.0018 H   0  0  0  0  0  0  0  0  0  0  0  0
    4.6946    0.5033   -0.0008 C   0  0  0  0  0  0  0  0  0  0  0  0
    5.7943    0.4497   -0.0009 H   0  0  0  0  0  0  0  0  0  0  0  0
    3.9318   -0.6995   -0.0002 C   0  0  0  0  0  0  0  0  0  0  0  0
    2.4962   -0.5894   -0.0000 C   0  0  0  0  0  0  0  0  0  0  0  0
    1.7120   -1.7836    0.0004 C   0  0  0  0  0  0  0  0  0  0  0  0
   -0.6048   -2.4392    0.0002 C   0  0  0  0  0  3  0  0  0  0  0  0
   -1.9337   -1.9282    0.0001 C   0  0  0  0  0  0  0  0  0  0  0  0
   -2.0272   -0.4775    0.0002 C   0  0  0  0  0  3  0  0  0  0  0  0
   -3.3689   -0.0029    0.0003 C   0  0  0  0  0  0  0  0  0  0  0  0
   -3.5775    1.0761    0.0006 H   0  0  0  0  0  0  0  0  0  0  0  0
   -4.4910   -0.8446    0.0002 C   0  0  0  0  0  0  0  0  0  0  0  0
   -5.5009   -0.4029    0.0003 H   0  0  0  0  0  0  0  0  0  0  0  0
   -3.0744   -2.7669   -0.0001 C   0  0  0  0  0  0  0  0  0  0  0  0
    4.5164   -2.0015    0.0002 C   0  0  0  0  0  0  0  0  0  0  0  0
    5.6142   -2.0912    0.0001 H   0  0  0  0  0  0  0  0  0  0  0  0
    3.7201   -3.1430    0.0007 C   0  0  0  0  0  0  0  0  0  0  0  0
    4.1907   -4.1383    0.0010 H   0  0  0  0  0  0  0  0  0  0  0  0
    2.3081   -3.0485    0.0008 C   0  0  0  0  0  0  0  0  0  0  0  0
    1.7004   -3.9646    0.0011 H   0  0  0  0  0  0  0  0  0  0  0  0
   -4.3631   -2.2502   -0.0001 C   0  0  0  0  0  0  0  0  0  0  0  0
   -5.2306   -2.9242   -0.0002 H   0  0  0  0  0  0  0  0  0  0  0  0
   -0.3704   -3.5168    0.0000 H   0  0  0  0  0  0  0  0  0  0  0  0
  1 20  1  0  0  0  0
  2 12  1  0  0  0  0
  3 11  1  0  0  0  0
  4  3  2  0  0  0  0
  5  4  1  0  0  0  0
  6  4  1  0  0  0  0
  6  8  2  0  0  0  0
  7  6  1  0  0  0  0
  8 10  1  0  0  0  0
  9  8  1  0  0  0  0
 10 11  2  0  0  0  0
 10 21  1  0  0  0  0
 11 12  1  0  0  0  0
 12 25  2  0  0  0  0
 13  2  1  0  0  0  0
 14 13  1  0  0  0  0
 14 15  1  0  0  0  0
 15 16  2  0  0  0  0
 16 17  1  0  0  0  0
 18 19  1  0  0  0  0
 18 16  1  0  0  0  0
 20 27  1  0  0  0  0
 20 14  2  0  0  0  0
 21 23  2  0  0  0  0
 22 21  1  0  0  0  0
 23 25  1  0  0  0  0
 23 24  1  0  0  0  0
 25 26  1  0  0  0  0
 27 18  2  0  0  0  0
 28 27  1  0  0  0  0
 29 13  1  0  0  0  0
M  END
