1,2,5
 OpenBabel05122313063D

 43 44  0  0  1  0  0  0  0  0999 V2000
    0.3560    0.5978   -0.6584 N   0  0  0  0  0  2  0  0  0  0  0  0
   -2.5830    0.4755   -1.6964 C   0  0  0  0  0  3  0  0  0  0  0  0
   -3.0118   -0.8450   -1.3169 C   0  0  0  0  0  0  0  0  0  0  0  0
   -2.1619   -1.9044   -0.8947 C   0  0  0  0  0  0  0  0  0  0  0  0
   -0.7230   -1.9520   -0.7401 C   0  0  2  0  0  3  0  0  0  0  0  0
    0.2153   -1.4600   -1.8494 C   0  0  0  0  0  0  0  0  0  0  0  0
   -4.4999   -1.0496   -1.1162 C   0  0  0  0  0  0  0  0  0  0  0  0
   -0.1904   -3.1397    0.0420 C   0  0  0  0  0  0  0  0  0  0  0  0
    1.1976   -0.3832   -1.3344 C   0  0  2  0  0  0  0  0  0  0  0  0
    2.3102   -0.9770   -0.4691 C   0  0  0  0  0  0  0  0  0  0  0  0
    3.2776   -1.8165   -1.0574 C   0  0  0  0  0  0  0  0  0  0  0  0
    4.2772   -2.4179   -0.2794 C   0  0  0  0  0  0  0  0  0  0  0  0
    4.3321   -2.1806    1.1042 C   0  0  0  0  0  0  0  0  0  0  0  0
    3.3868   -1.3289    1.6961 C   0  0  0  0  0  0  0  0  0  0  0  0
    2.3864   -0.7312    0.9136 C   0  0  0  0  0  0  0  0  0  0  0  0
    0.8038    1.9092   -0.5290 C   0  0  0  0  0  0  0  0  0  0  0  0
    2.1705    2.2933   -0.5927 C   0  0  0  0  0  0  0  0  0  0  0  0
    2.5429    3.6330   -0.4151 C   0  0  0  0  0  0  0  0  0  0  0  0
    1.5823    4.6276   -0.1701 C   0  0  0  0  0  0  0  0  0  0  0  0
    0.2237    4.2671   -0.1317 C   0  0  0  0  0  0  0  0  0  0  0  0
   -0.1601    2.9370   -0.3272 C   0  0  0  0  0  0  0  0  0  0  0  0
   -1.6898    0.6219   -2.3247 H   0  0  0  0  0  0  0  0  0  0  0  0
   -3.3685    1.2283   -1.8615 H   0  0  0  0  0  0  0  0  0  0  0  0
   -2.7068   -2.7157   -0.3816 H   0  0  0  0  0  0  0  0  0  0  0  0
   -0.3629   -1.0267   -2.6903 H   0  0  0  0  0  0  0  0  0  0  0  0
    0.7739   -2.3252   -2.2710 H   0  0  0  0  0  0  0  0  0  0  0  0
   -5.0022   -0.1088   -0.8149 H   0  0  0  0  0  0  0  0  0  0  0  0
   -4.7220   -1.8280   -0.3592 H   0  0  0  0  0  0  0  0  0  0  0  0
   -4.9646   -1.3693   -2.0736 H   0  0  0  0  0  0  0  0  0  0  0  0
    0.7977   -2.9237    0.4918 H   0  0  0  0  0  0  0  0  0  0  0  0
   -0.0557   -4.0271   -0.6194 H   0  0  0  0  0  0  0  0  0  0  0  0
   -0.8780   -3.4342    0.8598 H   0  0  0  0  0  0  0  0  0  0  0  0
    1.6927    0.0918   -2.2164 H   0  0  0  0  0  0  0  0  0  0  0  0
    3.2448   -2.0054   -2.1429 H   0  0  0  0  0  0  0  0  0  0  0  0
    5.0208   -3.0750   -0.7561 H   0  0  0  0  0  0  0  0  0  0  0  0
    5.1163   -2.6514    1.7164 H   0  0  0  0  0  0  0  0  0  0  0  0
    3.4296   -1.1236    2.7769 H   0  0  0  0  0  0  0  0  0  0  0  0
    1.6458   -0.0593    1.3680 H   0  0  0  0  0  0  0  0  0  0  0  0
    2.9459    1.5323   -0.7548 H   0  0  0  0  0  0  0  0  0  0  0  0
    3.6099    3.9017   -0.4619 H   0  0  0  0  0  0  0  0  0  0  0  0
    1.8861    5.6754   -0.0292 H   0  0  0  0  0  0  0  0  0  0  0  0
   -0.5481    5.0373    0.0228 H   0  0  0  0  0  0  0  0  0  0  0  0
   -1.2301    2.6707   -0.3770 H   0  0  0  0  0  0  0  0  0  0  0  0
  1 16  1  0  0  0  0
  2  3  1  0  0  0  0
  3  7  1  0  0  0  0
  3  4  2  0  0  0  0
  4 24  1  0  0  0  0
  5  4  1  6  0  0  0
  5  8  1  0  0  0  0
  6  9  1  0  0  0  0
  6  5  1  0  0  0  0
  7 27  1  0  0  0  0
  7 28  1  0  0  0  0
  8 30  1  0  0  0  0
  8 32  1  0  0  0  0
  9 33  1  6  0  0  0
  9  1  1  0  0  0  0
  9 10  1  0  0  0  0
 10 15  1  0  0  0  0
 11 10  2  0  0  0  0
 11 12  1  0  0  0  0
 12 13  2  0  0  0  0
 13 14  1  0  0  0  0
 13 36  1  0  0  0  0
 14 37  1  0  0  0  0
 15 38  1  0  0  0  0
 15 14  2  0  0  0  0
 16 21  1  0  0  0  0
 17 16  2  0  0  0  0
 17 18  1  0  0  0  0
 18 19  2  0  0  0  0
 19 20  1  0  0  0  0
 19 41  1  0  0  0  0
 20 42  1  0  0  0  0
 21 20  2  0  0  0  0
 22  2  1  0  0  0  0
 23  2  1  0  0  0  0
 25  6  1  0  0  0  0
 26  6  1  0  0  0  0
 29  7  1  0  0  0  0
 31  8  1  0  0  0  0
 34 11  1  0  0  0  0
 35 12  1  0  0  0  0
 39 17  1  0  0  0  0
 40 18  1  0  0  0  0
 43 21  1  0  0  0  0
M  END
