1,4,29
 OpenBabel05122313063D

 67 69  0  0  0  0  0  0  0  0999 V2000
    0.0000    2.2730    0.0001 N   0  0  0  0  0  2  0  0  0  0  0  0
    5.4232   -0.8194   -0.0016 O   0  0  0  0  0  0  0  0  0  0  0  0
   -5.4232   -0.8194    0.0009 O   0  0  0  0  0  0  0  0  0  0  0  0
    2.0569    0.5935   -0.0006 C   0  0  0  0  0  2  0  0  0  0  0  0
    3.1310   -0.3009   -0.0010 C   0  0  0  0  0  0  0  0  0  0  0  0
    2.9750   -1.3903   -0.0011 H   0  0  0  0  0  0  0  0  0  0  0  0
    4.4743    0.1510   -0.0012 C   0  0  0  0  0  0  0  0  0  0  0  0
    4.7556    1.5352   -0.0012 C   0  0  0  0  0  0  0  0  0  0  0  0
    5.7879    1.9075   -0.0014 H   0  0  0  0  0  0  0  0  0  0  0  0
    3.6913    2.4450   -0.0008 C   0  0  0  0  0  0  0  0  0  0  0  0
    3.9201    3.5223   -0.0008 H   0  0  0  0  0  0  0  0  0  0  0  0
    2.3554    2.0019   -0.0005 C   0  0  0  0  0  0  0  0  0  0  0  0
    1.2074    2.9114   -0.0001 C   0  0  0  0  0  0  0  0  0  0  0  0
    1.2197    4.3208    0.0001 C   0  0  0  0  0  0  0  0  0  0  0  0
    2.1742    4.8628   -0.0001 H   0  0  0  0  0  0  0  0  0  0  0  0
    0.0000    5.0113    0.0005 C   0  0  0  0  0  0  0  0  0  0  0  0
   -0.0000    6.1121    0.0006 H   0  0  0  0  0  0  0  0  0  0  0  0
   -1.2197    4.3208    0.0007 C   0  0  0  0  0  0  0  0  0  0  0  0
   -2.1742    4.8627    0.0010 H   0  0  0  0  0  0  0  0  0  0  0  0
   -1.2074    2.9114    0.0005 C   0  0  0  0  0  0  0  0  0  0  0  0
   -2.3554    2.0019    0.0006 C   0  0  0  0  0  0  0  0  0  0  0  0
   -3.6912    2.4450    0.0010 C   0  0  0  0  0  0  0  0  0  0  0  0
   -3.9201    3.5222    0.0012 H   0  0  0  0  0  0  0  0  0  0  0  0
   -4.7556    1.5352    0.0011 C   0  0  0  0  0  0  0  0  0  0  0  0
   -5.7879    1.9075    0.0014 H   0  0  0  0  0  0  0  0  0  0  0  0
   -4.4743    0.1510    0.0008 C   0  0  0  0  0  0  0  0  0  0  0  0
   -3.1310   -0.3009    0.0004 C   0  0  0  0  0  0  0  0  0  0  0  0
   -2.9750   -1.3903    0.0002 H   0  0  0  0  0  0  0  0  0  0  0  0
   -2.0569    0.5935    0.0003 C   0  0  0  0  0  3  0  0  0  0  0  0
    6.7988   -0.4496   -0.0011 C   0  0  0  0  0  0  0  0  0  0  0  0
    7.0277    0.1721    0.8966 H   0  0  0  0  0  0  0  0  0  0  0  0
    7.0285    0.1718   -0.8988 H   0  0  0  0  0  0  0  0  0  0  0  0
    7.6336   -1.7204   -0.0005 C   0  0  0  0  0  0  0  0  0  0  0  0
    7.3554   -2.3270   -0.8890 H   0  0  0  0  0  0  0  0  0  0  0  0
    7.3548   -2.3266    0.8881 H   0  0  0  0  0  0  0  0  0  0  0  0
    9.1382   -1.4415   -0.0000 C   0  0  0  0  0  0  0  0  0  0  0  0
    9.4026   -0.8223   -0.8872 H   0  0  0  0  0  0  0  0  0  0  0  0
    9.4020   -0.8216    0.8868 H   0  0  0  0  0  0  0  0  0  0  0  0
    9.9941   -2.7109    0.0008 C   0  0  0  0  0  0  0  0  0  0  0  0
    9.7309   -3.3318   -0.8854 H   0  0  0  0  0  0  0  0  0  0  0  0
    9.7303   -3.3310    0.8873 H   0  0  0  0  0  0  0  0  0  0  0  0
   11.5016   -2.4406    0.0012 C   0  0  0  0  0  0  0  0  0  0  0  0
   11.7600   -1.8189   -0.8851 H   0  0  0  0  0  0  0  0  0  0  0  0
   11.7594   -1.8180    0.8869 H   0  0  0  0  0  0  0  0  0  0  0  0
   12.3485   -3.7136    0.0021 C   0  0  0  0  0  0  0  0  0  0  0  0
   12.1375   -4.3375    0.8958 H   0  0  0  0  0  0  0  0  0  0  0  0
   13.4335   -3.4861    0.0023 H   0  0  0  0  0  0  0  0  0  0  0  0
   12.1381   -4.3384   -0.8911 H   0  0  0  0  0  0  0  0  0  0  0  0
   -6.7988   -0.4496    0.0008 C   0  0  0  0  0  0  0  0  0  0  0  0
   -7.0280    0.1723   -0.8967 H   0  0  0  0  0  0  0  0  0  0  0  0
   -7.0282    0.1717    0.8987 H   0  0  0  0  0  0  0  0  0  0  0  0
   -7.6336   -1.7204    0.0004 C   0  0  0  0  0  0  0  0  0  0  0  0
   -7.3551   -2.3271    0.8887 H   0  0  0  0  0  0  0  0  0  0  0  0
   -7.3550   -2.3265   -0.8884 H   0  0  0  0  0  0  0  0  0  0  0  0
   -9.1382   -1.4415    0.0004 C   0  0  0  0  0  0  0  0  0  0  0  0
   -9.4022   -0.8215   -0.8864 H   0  0  0  0  0  0  0  0  0  0  0  0
   -9.4023   -0.8223    0.8876 H   0  0  0  0  0  0  0  0  0  0  0  0
   -9.9941   -2.7108   -0.0003 C   0  0  0  0  0  0  0  0  0  0  0  0
   -9.7306   -3.3309   -0.8869 H   0  0  0  0  0  0  0  0  0  0  0  0
   -9.7306   -3.3318    0.8858 H   0  0  0  0  0  0  0  0  0  0  0  0
  -11.5016   -2.4406   -0.0002 C   0  0  0  0  0  0  0  0  0  0  0  0
  -11.7596   -1.8180   -0.8859 H   0  0  0  0  0  0  0  0  0  0  0  0
  -11.7597   -1.8189    0.8861 H   0  0  0  0  0  0  0  0  0  0  0  0
  -12.3485   -3.7136   -0.0009 C   0  0  0  0  0  0  0  0  0  0  0  0
  -12.1379   -4.3384    0.8922 H   0  0  0  0  0  0  0  0  0  0  0  0
  -12.1378   -4.3375   -0.8947 H   0  0  0  0  0  0  0  0  0  0  0  0
  -13.4335   -3.4861   -0.0008 H   0  0  0  0  0  0  0  0  0  0  0  0
  1 20  1  0  0  0  0
  2  7  1  0  0  0  0
  2 30  1  0  0  0  0
  4 12  1  0  0  0  0
  5  4  1  0  0  0  0
  6  5  1  0  0  0  0
  7  8  1  0  0  0  0
  7  5  2  0  0  0  0
  8 10  2  0  0  0  0
  9  8  1  0  0  0  0
 10 11  1  0  0  0  0
 10 12  1  0  0  0  0
 12 13  2  0  0  0  0
 13 14  1  0  0  0  0
 13  1  1  0  0  0  0
 14 16  2  0  0  0  0
 15 14  1  0  0  0  0
 16 17  1  0  0  0  0
 16 18  1  0  0  0  0
 18 19  1  0  0  0  0
 20 21  1  0  0  0  0
 20 18  2  0  0  0  0
 21 22  1  0  0  0  0
 22 24  2  0  0  0  0
 22 23  1  0  0  0  0
 24 25  1  0  0  0  0
 26  3  1  0  0  0  0
 26 24  1  0  0  0  0
 27 26  2  0  0  0  0
 28 27  1  0  0  0  0
 29 27  1  0  0  0  0
 29 21  2  0  0  0  0
 30 33  1  0  0  0  0
 30 31  1  0  0  0  0
 32 30  1  0  0  0  0
 33 36  1  0  0  0  0
 33 35  1  0  0  0  0
 34 33  1  0  0  0  0
 36 39  1  0  0  0  0
 36 38  1  0  0  0  0
 37 36  1  0  0  0  0
 39 42  1  0  0  0  0
 39 41  1  0  0  0  0
 40 39  1  0  0  0  0
 42 45  1  0  0  0  0
 42 44  1  0  0  0  0
 43 42  1  0  0  0  0
 45 47  1  0  0  0  0
 45 46  1  0  0  0  0
 48 45  1  0  0  0  0
 49  3  1  0  0  0  0
 49 51  1  0  0  0  0
 50 49  1  0  0  0  0
 52 55  1  0  0  0  0
 52 49  1  0  0  0  0
 52 53  1  0  0  0  0
 54 52  1  0  0  0  0
 55 57  1  0  0  0  0
 56 55  1  0  0  0  0
 58 61  1  0  0  0  0
 58 55  1  0  0  0  0
 58 60  1  0  0  0  0
 59 58  1  0  0  0  0
 61 63  1  0  0  0  0
 62 61  1  0  0  0  0
 64 67  1  0  0  0  0
 64 61  1  0  0  0  0
 64 65  1  0  0  0  0
 66 64  1  0  0  0  0
M  END
