3,6,23
 OpenBabel05122313063D

 37 39  0  0  1  0  0  0  0  0999 V2000
    3.2183   -0.4163   -0.1862 N   0  0  0  0  0  0  0  0  0  0  0  0
    2.2605    1.5238   -0.0119 N   0  0  0  0  0  0  0  0  0  0  0  0
   -0.0000    1.7668    0.0012 N   0  0  0  0  0  2  0  0  0  0  0  0
   -2.2605    1.5238   -0.0119 N   0  0  0  0  0  0  0  0  0  0  0  0
   -3.2183   -0.4163   -0.1862 N   0  0  0  0  0  0  0  0  0  0  0  0
    1.9964    0.1532   -0.1205 C   0  0  0  0  0  2  0  0  0  0  0  0
    4.2276    0.5448   -0.1112 C   0  0  0  0  0  0  0  0  0  0  0  0
    5.2876    0.2745   -0.1466 H   0  0  0  0  0  0  0  0  0  0  0  0
    3.6310    1.7714   -0.0055 C   0  0  0  0  0  0  0  0  0  0  0  0
    4.0642    2.7729    0.0644 H   0  0  0  0  0  0  0  0  0  0  0  0
    1.1815    2.4176    0.0559 C   0  0  1  0  0  3  0  0  0  0  0  0
    1.2272    3.8120    0.1680 C   0  0  0  0  0  0  0  0  0  0  0  0
    2.1813    4.3523    0.2128 H   0  0  0  0  0  0  0  0  0  0  0  0
    0.0000    4.4963    0.2222 C   0  0  0  0  0  0  0  0  0  0  0  0
    0.0000    5.5922    0.3102 H   0  0  0  0  0  0  0  0  0  0  0  0
   -1.2272    3.8120    0.1680 C   0  0  0  0  0  0  0  0  0  0  0  0
   -2.1813    4.3523    0.2128 H   0  0  0  0  0  0  0  0  0  0  0  0
   -1.1815    2.4176    0.0560 C   0  0  0  0  0  0  0  0  0  0  0  0
   -3.6310    1.7714   -0.0055 C   0  0  0  0  0  0  0  0  0  0  0  0
   -4.0642    2.7729    0.0643 H   0  0  0  0  0  0  0  0  0  0  0  0
   -4.2276    0.5448   -0.1112 C   0  0  0  0  0  0  0  0  0  0  0  0
   -5.2876    0.2745   -0.1467 H   0  0  0  0  0  0  0  0  0  0  0  0
   -1.9964    0.1532   -0.1204 C   0  0  0  0  0  2  0  0  0  0  0  0
    3.4705   -1.8669   -0.2566 C   0  0  0  0  0  0  0  0  0  0  0  0
    4.3887   -2.0009   -0.8617 H   0  0  0  0  0  0  0  0  0  0  0  0
    2.6179   -2.3104   -0.8059 H   0  0  0  0  0  0  0  0  0  0  0  0
    3.6025   -2.4960    1.1251 C   0  0  0  0  0  0  0  0  0  0  0  0
    4.4266   -2.0419    1.7110 H   0  0  0  0  0  0  0  0  0  0  0  0
    3.8146   -3.5772    1.0155 H   0  0  0  0  0  0  0  0  0  0  0  0
    2.6547   -2.3932    1.6889 H   0  0  0  0  0  0  0  0  0  0  0  0
   -3.4705   -1.8669   -0.2565 C   0  0  0  0  0  0  0  0  0  0  0  0
   -4.3887   -2.0010   -0.8616 H   0  0  0  0  0  0  0  0  0  0  0  0
   -2.6180   -2.3104   -0.8060 H   0  0  0  0  0  0  0  0  0  0  0  0
   -3.6023   -2.4960    1.1252 C   0  0  0  0  0  0  0  0  0  0  0  0
   -2.6544   -2.3931    1.6889 H   0  0  0  0  0  0  0  0  0  0  0  0
   -3.8143   -3.5772    1.0156 H   0  0  0  0  0  0  0  0  0  0  0  0
   -4.4264   -2.0420    1.7112 H   0  0  0  0  0  0  0  0  0  0  0  0
  1  6  1  0  0  0  0
  1  7  1  0  0  0  0
  2  9  1  0  0  0  0
  3 11  1  0  0  0  0
  3 18  1  0  0  0  0
  4 19  1  0  0  0  0
  4 18  1  0  0  0  0
  5 23  1  0  0  0  0
  5 21  1  0  0  0  0
  6  2  1  0  0  0  0
  7  9  2  0  0  0  0
  8  7  1  0  0  0  0
  9 10  1  0  0  0  0
 11  2  1  1  0  0  0
 11 12  1  0  0  0  0
 12 13  1  0  0  0  0
 12 14  2  0  0  0  0
 14 15  1  0  0  0  0
 16 17  1  0  0  0  0
 16 14  1  0  0  0  0
 18 16  2  0  0  0  0
 19 20  1  0  0  0  0
 21 19  2  0  0  0  0
 22 21  1  0  0  0  0
 23  4  1  0  0  0  0
 24  1  1  0  0  0  0
 24 27  1  0  0  0  0
 25 24  1  0  0  0  0
 26 24  1  0  0  0  0
 27 30  1  0  0  0  0
 27 28  1  0  0  0  0
 29 27  1  0  0  0  0
 31  5  1  0  0  0  0
 31 34  1  0  0  0  0
 32 31  1  0  0  0  0
 33 31  1  0  0  0  0
 34 35  1  0  0  0  0
 34 37  1  0  0  0  0
 36 34  1  0  0  0  0
M  END
