1,2,5
 OpenBabel05122313063D

 46 48  0  0  1  0  0  0  0  0999 V2000
   -0.6340    0.3801    0.0038 N   0  0  0  0  0  2  0  0  0  0  0  0
    1.8282    1.0630    0.1357 C   0  0  2  0  0  3  0  0  0  0  0  0
    2.3499    0.2761   -0.9476 C   0  0  0  0  0  0  0  0  0  0  0  0
    3.0048   -0.8663   -0.3758 C   0  0  0  0  0  0  0  0  0  0  0  0
    2.8660   -0.7743    1.0444 C   0  0  0  0  0  3  0  0  0  0  0  0
    3.2226   -1.5221    1.7639 H   0  0  0  0  0  0  0  0  0  0  0  0
    2.1499    0.4154    1.3765 C   0  0  2  0  0  3  0  0  0  0  0  0
    2.2095    0.5900   -2.4041 C   0  0  0  0  0  0  0  0  0  0  0  0
    3.1426    1.0439   -2.8009 H   0  0  0  0  0  0  0  0  0  0  0  0
    1.3877    1.3123   -2.5736 H   0  0  0  0  0  0  0  0  0  0  0  0
    1.9976   -0.3242   -2.9917 H   0  0  0  0  0  0  0  0  0  0  0  0
    3.7368   -1.9342   -1.1278 C   0  0  0  0  0  0  0  0  0  0  0  0
    4.7398   -1.5692   -1.4363 H   0  0  0  0  0  0  0  0  0  0  0  0
    3.1869   -2.2360   -2.0402 H   0  0  0  0  0  0  0  0  0  0  0  0
    3.8823   -2.8367   -0.5039 H   0  0  0  0  0  0  0  0  0  0  0  0
    1.7673    0.8906    2.7435 C   0  0  0  0  0  0  0  0  0  0  0  0
    1.5933    0.0362    3.4247 H   0  0  0  0  0  0  0  0  0  0  0  0
    0.8464    1.5048    2.7076 H   0  0  0  0  0  0  0  0  0  0  0  0
    2.5711    1.5238    3.1755 H   0  0  0  0  0  0  0  0  0  0  0  0
    0.8792    2.1882   -0.0069 C   0  0  0  0  0  0  0  0  0  0  0  0
   -0.4805    1.7617   -0.0735 C   0  0  0  0  0  0  0  0  0  0  0  0
   -1.4954    2.7393   -0.2042 C   0  0  0  0  0  0  0  0  0  0  0  0
   -2.5517    2.4488   -0.2566 H   0  0  0  0  0  0  0  0  0  0  0  0
   -1.1455    4.0969   -0.2677 C   0  0  0  0  0  0  0  0  0  0  0  0
   -1.9438    4.8479   -0.3701 H   0  0  0  0  0  0  0  0  0  0  0  0
    0.1949    4.5097   -0.2034 C   0  0  0  0  0  0  0  0  0  0  0  0
    0.4497    5.5782   -0.2552 H   0  0  0  0  0  0  0  0  0  0  0  0
    1.2103    3.5452   -0.0713 C   0  0  0  0  0  0  0  0  0  0  0  0
    2.2675    3.8465   -0.0177 H   0  0  0  0  0  0  0  0  0  0  0  0
   -1.9114   -0.3308   -0.0523 C   0  0  0  0  0  0  0  0  0  0  0  0
   -1.6349   -1.4154    0.0293 H   0  0  0  0  0  0  0  0  0  0  0  0
   -2.8301   -0.0746    1.1562 C   0  0  0  0  0  0  0  0  0  0  0  0
   -3.1521    0.9879    1.1717 H   0  0  0  0  0  0  0  0  0  0  0  0
   -2.2476   -0.2525    2.0831 H   0  0  0  0  0  0  0  0  0  0  0  0
   -4.0585   -0.9917    1.0943 C   0  0  0  0  0  0  0  0  0  0  0  0
   -3.7252   -2.0454    1.2265 H   0  0  0  0  0  0  0  0  0  0  0  0
   -4.7397   -0.7719    1.9426 H   0  0  0  0  0  0  0  0  0  0  0  0
   -4.7992   -0.8592   -0.2433 C   0  0  0  0  0  0  0  0  0  0  0  0
   -5.2124    0.1715   -0.3320 H   0  0  0  0  0  0  0  0  0  0  0  0
   -5.6702   -1.5468   -0.2714 H   0  0  0  0  0  0  0  0  0  0  0  0
   -3.8661   -1.1317   -1.4311 C   0  0  0  0  0  0  0  0  0  0  0  0
   -4.4093   -1.0118   -2.3915 H   0  0  0  0  0  0  0  0  0  0  0  0
   -3.5258   -2.1908   -1.3949 H   0  0  0  0  0  0  0  0  0  0  0  0
   -2.6352   -0.2166   -1.4062 C   0  0  0  0  0  0  0  0  0  0  0  0
   -1.9208   -0.4890   -2.2096 H   0  0  0  0  0  0  0  0  0  0  0  0
   -2.9429    0.8349   -1.5860 H   0  0  0  0  0  0  0  0  0  0  0  0
  2 20  1  6  0  0  0
  2  7  1  0  0  0  0
  3  4  2  0  0  0  0
  3  2  1  0  0  0  0
  4  5  1  0  0  0  0
  5  7  1  0  0  0  0
  5  6  1  0  0  0  0
  7 16  1  6  0  0  0
  8  3  1  0  0  0  0
  9  8  1  0  0  0  0
 10  8  1  0  0  0  0
 11  8  1  0  0  0  0
 12 15  1  0  0  0  0
 12  4  1  0  0  0  0
 13 12  1  0  0  0  0
 14 12  1  0  0  0  0
 16 19  1  0  0  0  0
 16 17  1  0  0  0  0
 18 16  1  0  0  0  0
 21 20  2  0  0  0  0
 21  1  1  0  0  0  0
 22 21  1  0  0  0  0
 23 22  1  0  0  0  0
 24 22  2  0  0  0  0
 24 26  1  0  0  0  0
 25 24  1  0  0  0  0
 26 28  2  0  0  0  0
 27 26  1  0  0  0  0
 28 29  1  0  0  0  0
 28 20  1  0  0  0  0
 30  1  1  0  0  0  0
 30 31  1  0  0  0  0
 30 32  1  0  0  0  0
 32 33  1  0  0  0  0
 32 34  1  0  0  0  0
 35 32  1  0  0  0  0
 35 36  1  0  0  0  0
 35 37  1  0  0  0  0
 38 35  1  0  0  0  0
 39 38  1  0  0  0  0
 40 38  1  0  0  0  0
 41 44  1  0  0  0  0
 41 43  1  0  0  0  0
 41 38  1  0  0  0  0
 42 41  1  0  0  0  0
 44 30  1  0  0  0  0
 45 44  1  0  0  0  0
 46 44  1  0  0  0  0
M  END
