2,12,14
 OpenBabel05122313063D

 46 48  0  0  1  0  0  0  0  0999 V2000
   -5.7486    0.5797   -0.1062 Cl  0  0  0  0  0  0  0  0  0  0  0  0
    0.2005    0.6522    0.0139 N   0  0  0  0  0  2  0  0  0  0  0  0
   -1.8686   -0.4765    0.0609 C   0  0  0  0  0  0  0  0  0  0  0  0
   -1.1842    0.7722   -0.0248 C   0  0  0  0  0  0  0  0  0  0  0  0
   -1.9508    1.9569   -0.1343 C   0  0  0  0  0  0  0  0  0  0  0  0
   -1.4660    2.9381   -0.2016 H   0  0  0  0  0  0  0  0  0  0  0  0
   -3.3508    1.8879   -0.1586 C   0  0  0  0  0  0  0  0  0  0  0  0
   -3.9473    2.8071   -0.2440 H   0  0  0  0  0  0  0  0  0  0  0  0
   -4.0041    0.6479   -0.0742 C   0  0  0  0  0  0  0  0  0  0  0  0
   -3.2637   -0.5434    0.0367 C   0  0  0  0  0  0  0  0  0  0  0  0
   -3.7784   -1.5119    0.1038 H   0  0  0  0  0  0  0  0  0  0  0  0
   -0.9507   -1.6302    0.1780 C   0  0  2  0  0  3  0  0  0  0  0  0
   -0.3467   -2.0735    1.4029 C   0  0  1  0  0  3  0  0  0  0  0  0
    0.6689   -3.0095    1.0418 C   0  0  0  0  0  3  0  0  0  0  0  0
    1.3508   -3.5070    1.7429 H   0  0  0  0  0  0  0  0  0  0  0  0
    0.6932   -3.1628   -0.3799 C   0  0  0  0  0  0  0  0  0  0  0  0
   -0.3128   -2.2956   -0.9244 C   0  0  0  0  0  0  0  0  0  0  0  0
   -0.6999   -1.6057    2.7803 C   0  0  0  0  0  0  0  0  0  0  0  0
   -1.4691   -2.2676    3.2318 H   0  0  0  0  0  0  0  0  0  0  0  0
   -1.1184   -0.5805    2.7581 H   0  0  0  0  0  0  0  0  0  0  0  0
    0.1897   -1.6070    3.4381 H   0  0  0  0  0  0  0  0  0  0  0  0
    1.5752   -4.0902   -1.1566 C   0  0  0  0  0  0  0  0  0  0  0  0
    1.0131   -5.0039   -1.4454 H   0  0  0  0  0  0  0  0  0  0  0  0
    2.4507   -4.4068   -0.5582 H   0  0  0  0  0  0  0  0  0  0  0  0
    1.9500   -3.6121   -2.0822 H   0  0  0  0  0  0  0  0  0  0  0  0
   -0.6339   -2.0965   -2.3724 C   0  0  0  0  0  0  0  0  0  0  0  0
    0.2872   -2.0694   -2.9862 H   0  0  0  0  0  0  0  0  0  0  0  0
   -1.1845   -1.1488   -2.5282 H   0  0  0  0  0  0  0  0  0  0  0  0
   -1.2738   -2.9221   -2.7507 H   0  0  0  0  0  0  0  0  0  0  0  0
    1.1444    1.7680   -0.0601 C   0  0  0  0  0  0  0  0  0  0  0  0
    2.1559    1.2858   -0.0051 H   0  0  0  0  0  0  0  0  0  0  0  0
    1.0981    2.7119    1.1550 C   0  0  0  0  0  0  0  0  0  0  0  0
    0.1190    3.2342    1.1956 H   0  0  0  0  0  0  0  0  0  0  0  0
    1.1806    2.1013    2.0772 H   0  0  0  0  0  0  0  0  0  0  0  0
    2.2342    3.7398    1.0740 C   0  0  0  0  0  0  0  0  0  0  0  0
    2.1693    4.4456    1.9280 H   0  0  0  0  0  0  0  0  0  0  0  0
    3.2059    3.2078    1.1817 H   0  0  0  0  0  0  0  0  0  0  0  0
    2.2180    4.4997   -0.2594 C   0  0  0  0  0  0  0  0  0  0  0  0
    3.0611    5.2204   -0.3025 H   0  0  0  0  0  0  0  0  0  0  0  0
    1.2859    5.1063   -0.3235 H   0  0  0  0  0  0  0  0  0  0  0  0
    2.2770    3.5384   -1.4543 C   0  0  0  0  0  0  0  0  0  0  0  0
    3.2503    2.9985   -1.4435 H   0  0  0  0  0  0  0  0  0  0  0  0
    2.2430    4.0999   -2.4109 H   0  0  0  0  0  0  0  0  0  0  0  0
    1.1409    2.5082   -1.4100 C   0  0  0  0  0  0  0  0  0  0  0  0
    0.1657    3.0161   -1.5644 H   0  0  0  0  0  0  0  0  0  0  0  0
    1.2505    1.7599   -2.2212 H   0  0  0  0  0  0  0  0  0  0  0  0
  1  9  1  0  0  0  0
  4  2  1  0  0  0  0
  4  3  2  0  0  0  0
  5  4  1  0  0  0  0
  6  5  1  0  0  0  0
  7  5  2  0  0  0  0
  7  9  1  0  0  0  0
  8  7  1  0  0  0  0
  9 10  2  0  0  0  0
 10  3  1  0  0  0  0
 10 11  1  0  0  0  0
 12  3  1  6  0  0  0
 12 13  1  0  0  0  0
 13 18  1  6  0  0  0
 14 13  1  0  0  0  0
 14 15  1  0  0  0  0
 16 14  1  0  0  0  0
 17 16  2  0  0  0  0
 17 12  1  0  0  0  0
 18 19  1  0  0  0  0
 18 21  1  0  0  0  0
 20 18  1  0  0  0  0
 22 24  1  0  0  0  0
 22 16  1  0  0  0  0
 23 22  1  0  0  0  0
 25 22  1  0  0  0  0
 26 17  1  0  0  0  0
 27 26  1  0  0  0  0
 28 26  1  0  0  0  0
 29 26  1  0  0  0  0
 30 31  1  0  0  0  0
 30  2  1  0  0  0  0
 30 32  1  0  0  0  0
 32 33  1  0  0  0  0
 32 34  1  0  0  0  0
 35 32  1  0  0  0  0
 35 37  1  0  0  0  0
 35 36  1  0  0  0  0
 38 35  1  0  0  0  0
 39 38  1  0  0  0  0
 40 38  1  0  0  0  0
 41 42  1  0  0  0  0
 41 44  1  0  0  0  0
 41 38  1  0  0  0  0
 43 41  1  0  0  0  0
 44 30  1  0  0  0  0
 45 44  1  0  0  0  0
 46 44  1  0  0  0  0
M  END
