5,7,11
 OpenBabel05122313063D

 29 31  0  0  0  0  0  0  0  0999 V2000
    2.7774   -2.2235    0.0008 F   0  0  0  0  0  0  0  0  0  0  0  0
    3.2405    3.2623   -0.0023 F   0  0  0  0  0  0  0  0  0  0  0  0
    5.2056   -1.0459   -0.0001 F   0  0  0  0  0  0  0  0  0  0  0  0
    1.8240    1.3235   -0.0009 C   0  0  0  0  0  0  0  0  0  0  0  0
   -0.4868    1.3065   -0.0010 N   0  0  0  0  0  2  0  0  0  0  0  0
    0.5937    2.0631   -0.0014 C   0  0  0  0  0  3  0  0  0  0  0  0
    1.6480   -0.1088    0.0000 C   0  0  0  0  0  3  0  0  0  0  0  0
    2.8225   -0.8637    0.0002 C   0  0  0  0  0  0  0  0  0  0  0  0
    4.1030   -0.2855   -0.0003 C   0  0  0  0  0  0  0  0  0  0  0  0
   -4.1534    0.9136   -0.0006 C   0  0  0  0  0  0  0  0  0  0  0  0
   -2.1836   -0.6784    0.0007 C   0  0  0  0  0  3  0  0  0  0  0  0
   -2.7408    0.6509   -0.0004 C   0  0  0  0  0  0  0  0  0  0  0  0
    3.1049    1.9219   -0.0014 C   0  0  0  0  0  0  0  0  0  0  0  0
    4.2494    1.1205   -0.0011 C   0  0  0  0  0  0  0  0  0  0  0  0
   -3.1130   -1.7260    0.0016 C   0  0  0  0  0  0  0  0  0  0  0  0
   -2.7582   -2.7699    0.0025 H   0  0  0  0  0  0  0  0  0  0  0  0
   -4.5182   -1.4922    0.0014 C   0  0  0  0  0  0  0  0  0  0  0  0
   -5.2042   -2.3548    0.0021 H   0  0  0  0  0  0  0  0  0  0  0  0
   -2.2710    3.0686   -0.0025 C   0  0  0  0  0  0  0  0  0  0  0  0
   -1.5640    3.9112   -0.0032 H   0  0  0  0  0  0  0  0  0  0  0  0
   -1.8194    1.7464   -0.0013 C   0  0  0  0  0  0  0  0  0  0  0  0
   -4.5864    2.2732   -0.0017 C   0  0  0  0  0  0  0  0  0  0  0  0
   -5.6665    2.4888   -0.0019 H   0  0  0  0  0  0  0  0  0  0  0  0
   -3.6655    3.3180   -0.0027 C   0  0  0  0  0  0  0  0  0  0  0  0
   -4.0225    4.3593   -0.0035 H   0  0  0  0  0  0  0  0  0  0  0  0
   -5.0392   -0.2042    0.0003 C   0  0  0  0  0  0  0  0  0  0  0  0
   -6.1267   -0.0328    0.0002 H   0  0  0  0  0  0  0  0  0  0  0  0
    5.4757    1.6614   -0.0015 F   0  0  0  0  0  0  0  0  0  0  0  0
    0.5529    3.1663   -0.0021 H   0  0  0  0  0  0  0  0  0  0  0  0
  2 13  1  0  0  0  0
  4  7  1  0  0  0  0
  6  5  1  0  0  0  0
  6  4  1  0  0  0  0
  7  8  2  0  0  0  0
  8  1  1  0  0  0  0
  9  3  1  0  0  0  0
  9  8  1  0  0  0  0
 10 12  1  0  0  0  0
 10 26  2  0  0  0  0
 11 15  1  0  0  0  0
 12 11  2  0  0  0  0
 13 14  1  0  0  0  0
 13  4  2  0  0  0  0
 14  9  2  0  0  0  0
 15 16  1  0  0  0  0
 17 15  2  0  0  0  0
 17 18  1  0  0  0  0
 19 21  2  0  0  0  0
 20 19  1  0  0  0  0
 21  5  1  0  0  0  0
 21 12  1  0  0  0  0
 22 10  1  0  0  0  0
 23 22  1  0  0  0  0
 24 19  1  0  0  0  0
 24 22  2  0  0  0  0
 25 24  1  0  0  0  0
 26 17  1  0  0  0  0
 27 26  1  0  0  0  0
 28 14  1  0  0  0  0
 29  6  1  0  0  0  0
M  END
