6,8,13
 OpenBabel05122313063D

 54 55  0  0  1  0  0  0  0  0999 V2000
   -4.1343    0.1331    0.8274 O   0  0  0  0  0  0  0  0  0  0  0  0
   -3.7046    1.1199   -1.1759 O   0  0  0  0  0  0  0  0  0  0  0  0
   -0.4737    3.4645    1.3013 O   0  0  0  0  0  0  0  0  0  0  0  0
   -2.6459    2.9130    0.9599 O   0  0  0  0  0  0  0  0  0  0  0  0
    0.6967   -0.9356   -2.5920 O   0  0  0  0  0  0  0  0  0  0  0  0
    0.0706   -1.3344    1.2640 N   0  0  0  0  0  2  0  0  0  0  0  0
    0.9401    0.4917   -0.8301 N   0  0  0  0  0  0  0  0  0  0  0  0
   -1.8727    0.3222    0.0594 C   0  0  0  0  0  3  0  0  0  0  0  0
   -3.3426    0.5294   -0.0112 C   0  0  0  0  0  0  0  0  0  0  0  0
   -5.1129    1.3008   -1.3560 C   0  0  0  0  0  0  0  0  0  0  0  0
    2.0708    1.2082   -1.4524 C   0  0  1  0  0  0  0  0  0  0  0  0
    1.6991    2.6741   -1.6992 C   0  0  0  0  0  0  0  0  0  0  0  0
    0.3432   -0.5597   -1.4785 C   0  0  0  0  0  3  0  0  0  0  0  0
   -1.0029    1.2777    0.4743 C   0  0  0  0  0  0  0  0  0  0  0  0
   -1.3180    2.6470    0.9486 C   0  0  0  0  0  0  0  0  0  0  0  0
   -3.0127    4.2218    1.4013 C   0  0  0  0  0  0  0  0  0  0  0  0
    0.4710    0.9251    0.4798 C   0  0  1  0  0  0  0  0  0  0  0  0
    3.3688    0.9934   -0.6405 C   0  0  0  0  0  0  0  0  0  0  0  0
    4.5836    1.7028   -1.2670 C   0  0  0  0  0  0  0  0  0  0  0  0
    5.8676    1.4673   -0.4590 C   0  0  0  0  0  0  0  0  0  0  0  0
    6.1546   -0.0253   -0.2589 C   0  0  0  0  0  0  0  0  0  0  0  0
    4.9491   -0.7377    0.3655 C   0  0  0  0  0  0  0  0  0  0  0  0
    3.6760   -0.5040   -0.4541 C   0  0  0  0  0  0  0  0  0  0  0  0
    0.2528   -2.3621    2.1255 C   0  0  0  0  0  3  0  0  0  0  0  0
    1.0605   -2.2594    3.2593 C   0  0  0  0  0  0  0  0  0  0  0  0
    1.7089   -1.0424    3.5209 C   0  0  0  0  0  0  0  0  0  0  0  0
    1.5230    0.0170    2.6283 C   0  0  0  0  0  0  0  0  0  0  0  0
    0.7033   -0.1611    1.5013 C   0  0  0  0  0  0  0  0  0  0  0  0
   -5.2462    1.6676   -2.3892 H   0  0  0  0  0  0  0  0  0  0  0  0
   -5.5060    2.0429   -0.6310 H   0  0  0  0  0  0  0  0  0  0  0  0
   -5.6584    0.3473   -1.2067 H   0  0  0  0  0  0  0  0  0  0  0  0
    2.1889    0.6983   -2.4317 H   0  0  0  0  0  0  0  0  0  0  0  0
    0.7379    2.7300   -2.2465 H   0  0  0  0  0  0  0  0  0  0  0  0
    2.4673    3.1812   -2.3140 H   0  0  0  0  0  0  0  0  0  0  0  0
    1.5850    3.2478   -0.7558 H   0  0  0  0  0  0  0  0  0  0  0  0
   -2.6461    4.4096    2.4306 H   0  0  0  0  0  0  0  0  0  0  0  0
   -4.1164    4.2547    1.3737 H   0  0  0  0  0  0  0  0  0  0  0  0
   -2.5854    4.9986    0.7350 H   0  0  0  0  0  0  0  0  0  0  0  0
    1.0389    1.8224    0.7790 H   0  0  0  0  0  0  0  0  0  0  0  0
    3.2204    1.4431    0.3720 H   0  0  0  0  0  0  0  0  0  0  0  0
    4.3952    2.7919   -1.3554 H   0  0  0  0  0  0  0  0  0  0  0  0
    4.7203    1.3208   -2.3046 H   0  0  0  0  0  0  0  0  0  0  0  0
    6.7258    1.9665   -0.9558 H   0  0  0  0  0  0  0  0  0  0  0  0
    5.7602    1.9537    0.5372 H   0  0  0  0  0  0  0  0  0  0  0  0
    7.0617   -0.1665    0.3658 H   0  0  0  0  0  0  0  0  0  0  0  0
    6.3780   -0.4896   -1.2457 H   0  0  0  0  0  0  0  0  0  0  0  0
    5.1464   -1.8259    0.4643 H   0  0  0  0  0  0  0  0  0  0  0  0
    4.7915   -0.3550    1.4002 H   0  0  0  0  0  0  0  0  0  0  0  0
    2.8148   -1.0164    0.0202 H   0  0  0  0  0  0  0  0  0  0  0  0
    3.7852   -0.9680   -1.4598 H   0  0  0  0  0  0  0  0  0  0  0  0
   -0.2773   -3.2968    1.8929 H   0  0  0  0  0  0  0  0  0  0  0  0
    1.1697   -3.1265    3.9253 H   0  0  0  0  0  0  0  0  0  0  0  0
    2.3515   -0.9248    4.4061 H   0  0  0  0  0  0  0  0  0  0  0  0
    2.0105    0.9904    2.7812 H   0  0  0  0  0  0  0  0  0  0  0  0
  2  9  1  0  0  0  0
  4 16  1  0  0  0  0
  5 13  2  0  0  0  0
  6 28  1  0  0  0  0
  6 24  1  0  0  0  0
  7 17  1  0  0  0  0
  8 14  2  0  0  0  0
  9  8  1  0  0  0  0
  9  1  2  0  0  0  0
 10 31  1  0  0  0  0
 10  2  1  0  0  0  0
 10 30  1  0  0  0  0
 11 32  1  6  0  0  0
 11  7  1  0  0  0  0
 11 18  1  0  0  0  0
 12 11  1  0  0  0  0
 12 35  1  0  0  0  0
 13  7  1  0  0  0  0
 14 17  1  0  0  0  0
 14 15  1  0  0  0  0
 15  4  1  0  0  0  0
 15  3  2  0  0  0  0
 16 36  1  0  0  0  0
 17 39  1  1  0  0  0
 17 28  1  0  0  0  0
 18 23  1  0  0  0  0
 18 40  1  0  0  0  0
 19 18  1  0  0  0  0
 19 20  1  0  0  0  0
 20 21  1  0  0  0  0
 20 44  1  0  0  0  0
 21 22  1  0  0  0  0
 21 45  1  0  0  0  0
 22 47  1  0  0  0  0
 22 48  1  0  0  0  0
 23 49  1  0  0  0  0
 23 22  1  0  0  0  0
 24 25  1  0  0  0  0
 25 26  2  0  0  0  0
 25 52  1  0  0  0  0
 26 53  1  0  0  0  0
 27 54  1  0  0  0  0
 27 26  1  0  0  0  0
 28 27  2  0  0  0  0
 29 10  1  0  0  0  0
 33 12  1  0  0  0  0
 34 12  1  0  0  0  0
 37 16  1  0  0  0  0
 38 16  1  0  0  0  0
 41 19  1  0  0  0  0
 42 19  1  0  0  0  0
 43 20  1  0  0  0  0
 46 21  1  0  0  0  0
 50 23  1  0  0  0  0
 51 24  1  0  0  0  0
M  END
