1,6,9
 OpenBabel05122313063D

 73 79  0  0  0  0  0  0  0  0999 V2000
    1.0928    0.6712   -0.3324 N   0  0  0  0  0  2  0  0  0  0  0  0
   -4.8719   -0.5230   -1.0544 N   0  0  0  0  0  0  0  0  0  0  0  0
   -0.3120    2.5515   -0.7498 C   0  0  0  0  0  0  0  0  0  0  0  0
   -1.3065    2.9592   -0.9715 H   0  0  0  0  0  0  0  0  0  0  0  0
    2.2035    1.4542   -0.2570 C   0  0  0  0  0  0  0  0  0  0  0  0
    3.3064   -0.7386    0.1639 C   0  0  0  0  0  3  0  0  0  0  0  0
   -0.1577    1.1652   -0.5741 C   0  0  0  0  0  0  0  0  0  0  0  0
    3.4431    0.7061    0.0142 C   0  0  0  0  0  0  0  0  0  0  0  0
   -0.7643   -1.2137   -0.3717 C   0  0  0  0  0  3  0  0  0  0  0  0
   -4.2996   -2.7150   -0.6507 C   0  0  0  0  0  0  0  0  0  0  0  0
    0.8035    3.4100   -0.6758 C   0  0  0  0  0  0  0  0  0  0  0  0
   -3.0914   -1.9177   -0.6032 C   0  0  0  0  0  0  0  0  0  0  0  0
   -1.2032    0.1410   -0.6135 C   0  0  0  0  0  0  0  0  0  0  0  0
    2.0719    2.8419   -0.4288 C   0  0  0  0  0  0  0  0  0  0  0  0
    2.9552    3.4861   -0.3352 H   0  0  0  0  0  0  0  0  0  0  0  0
   -1.7354   -2.2269   -0.3723 C   0  0  0  0  0  0  0  0  0  0  0  0
   -1.4280   -3.2679   -0.1866 H   0  0  0  0  0  0  0  0  0  0  0  0
    6.9632   -1.5455    0.7855 C   0  0  0  0  0  0  0  0  0  0  0  0
    6.8927   -2.6390    0.9021 H   0  0  0  0  0  0  0  0  0  0  0  0
   -5.8862   -4.5418   -0.6010 C   0  0  0  0  0  0  0  0  0  0  0  0
   -6.1095   -5.6119   -0.4766 H   0  0  0  0  0  0  0  0  0  0  0  0
    4.6749    1.3484    0.1178 C   0  0  0  0  0  0  0  0  0  0  0  0
    4.7522    2.4411    0.0004 H   0  0  0  0  0  0  0  0  0  0  0  0
    7.1429    1.2517    0.4872 C   0  0  0  0  0  0  0  0  0  0  0  0
    7.2058    2.3452    0.3698 H   0  0  0  0  0  0  0  0  0  0  0  0
    0.6464    4.8749   -0.8497 C   0  0  0  0  0  0  0  0  0  0  0  0
    8.2841    0.5035    0.7391 C   0  0  0  0  0  0  0  0  0  0  0  0
    9.2630    0.9990    0.8235 H   0  0  0  0  0  0  0  0  0  0  0  0
    5.7722   -0.8071    0.5277 C   0  0  0  0  0  0  0  0  0  0  0  0
    1.6505    5.6421   -1.4826 C   0  0  0  0  0  0  0  0  0  0  0  0
    2.5475    5.1406   -1.8760 H   0  0  0  0  0  0  0  0  0  0  0  0
   -4.5659   -4.0876   -0.4903 C   0  0  0  0  0  0  0  0  0  0  0  0
   -3.7430   -4.7877   -0.2809 H   0  0  0  0  0  0  0  0  0  0  0  0
   -2.5535    0.4727   -0.8568 C   0  0  0  0  0  0  0  0  0  0  0  0
   -2.8606    1.5136   -1.0321 H   0  0  0  0  0  0  0  0  0  0  0  0
    5.8685    0.6228    0.3757 C   0  0  0  0  0  0  0  0  0  0  0  0
    4.4902   -1.4291    0.4149 C   0  0  0  0  0  0  0  0  0  0  0  0
    4.4900   -2.5254    0.5418 H   0  0  0  0  0  0  0  0  0  0  0  0
   -3.4909   -0.5645   -0.8513 C   0  0  0  0  0  0  0  0  0  0  0  0
   -0.5122    5.5383   -0.3851 C   0  0  0  0  0  0  0  0  0  0  0  0
   -1.2922    4.9635    0.1367 H   0  0  0  0  0  0  0  0  0  0  0  0
   -4.9355    2.8739    3.2826 C   0  0  0  0  0  0  0  0  0  0  0  0
   -4.3141    3.6622    2.8009 H   0  0  0  0  0  0  0  0  0  0  0  0
   -4.2266    2.0581    3.5468 H   0  0  0  0  0  0  0  0  0  0  0  0
   -0.6603    6.9221   -0.5465 C   0  0  0  0  0  0  0  0  0  0  0  0
   -1.5645    7.4215   -0.1669 H   0  0  0  0  0  0  0  0  0  0  0  0
   -5.3021    1.7787    0.9961 C   0  0  0  0  0  0  0  0  0  0  0  0
   -4.6709    2.5663    0.5240 H   0  0  0  0  0  0  0  0  0  0  0  0
   -4.6013    0.9618    1.2745 H   0  0  0  0  0  0  0  0  0  0  0  0
   -6.9402   -3.6384   -0.8698 C   0  0  0  0  0  0  0  0  0  0  0  0
   -7.9701   -4.0184   -0.9503 H   0  0  0  0  0  0  0  0  0  0  0  0
    8.1917   -0.9070    0.8892 C   0  0  0  0  0  0  0  0  0  0  0  0
    9.1017   -1.4934    1.0888 H   0  0  0  0  0  0  0  0  0  0  0  0
   -5.3790   -1.8122   -0.9248 C   0  0  0  0  0  3  0  0  0  0  0  0
    0.3441    7.6710   -1.1803 C   0  0  0  0  0  0  0  0  0  0  0  0
    0.2268    8.7577   -1.3087 H   0  0  0  0  0  0  0  0  0  0  0  0
   -5.5804    3.4303    4.5521 C   0  0  0  0  0  0  0  0  0  0  0  0
   -4.8221    3.8060    5.2683 H   0  0  0  0  0  0  0  0  0  0  0  0
   -6.1767    2.6531    5.0745 H   0  0  0  0  0  0  0  0  0  0  0  0
   -6.2680    4.2709    4.3210 H   0  0  0  0  0  0  0  0  0  0  0  0
   -5.9481    2.3433    2.2631 C   0  0  0  0  0  0  0  0  0  0  0  0
   -6.6579    3.1574    1.9893 H   0  0  0  0  0  0  0  0  0  0  0  0
   -6.5710    1.5530    2.7403 H   0  0  0  0  0  0  0  0  0  0  0  0
    1.4994    7.0251   -1.6487 C   0  0  0  0  0  0  0  0  0  0  0  0
    2.2877    7.6027   -2.1550 H   0  0  0  0  0  0  0  0  0  0  0  0
   -6.7057   -2.2656   -1.0334 C   0  0  0  0  0  0  0  0  0  0  0  0
   -7.5364   -1.5741   -1.2362 H   0  0  0  0  0  0  0  0  0  0  0  0
   -6.3099    1.2569   -0.0305 C   0  0  0  0  0  0  0  0  0  0  0  0
   -6.9915    2.0790   -0.3427 H   0  0  0  0  0  0  0  0  0  0  0  0
   -6.9557    0.4836    0.4402 H   0  0  0  0  0  0  0  0  0  0  0  0
   -5.6706    0.6639   -1.2948 C   0  0  0  0  0  0  0  0  0  0  0  0
   -6.4582    0.4034   -2.0328 H   0  0  0  0  0  0  0  0  0  0  0  0
   -5.0208    1.4170   -1.7875 H   0  0  0  0  0  0  0  0  0  0  0  0
  1  5  1  0  0  0  0
  2 54  1  0  0  0  0
  2 39  1  0  0  0  0
  3 11  2  0  0  0  0
  3  7  1  0  0  0  0
  4  3  1  0  0  0  0
  5  8  1  0  0  0  0
  6 37  1  0  0  0  0
  7  1  1  0  0  0  0
  8 22  1  0  0  0  0
  8  6  2  0  0  0  0
 10 12  2  0  0  0  0
 10 32  1  0  0  0  0
 11 14  1  0  0  0  0
 12 16  1  0  0  0  0
 13  7  2  0  0  0  0
 13  9  1  0  0  0  0
 14 15  1  0  0  0  0
 14  5  2  0  0  0  0
 16  9  2  0  0  0  0
 16 17  1  0  0  0  0
 18 52  2  0  0  0  0
 18 19  1  0  0  0  0
 20 32  2  0  0  0  0
 20 21  1  0  0  0  0
 22 36  2  0  0  0  0
 23 22  1  0  0  0  0
 24 27  2  0  0  0  0
 25 24  1  0  0  0  0
 26 11  1  0  0  0  0
 26 40  1  0  0  0  0
 27 28  1  0  0  0  0
 27 52  1  0  0  0  0
 29 18  1  0  0  0  0
 30 26  2  0  0  0  0
 31 30  1  0  0  0  0
 32 33  1  0  0  0  0
 34 39  2  0  0  0  0
 34 13  1  0  0  0  0
 35 34  1  0  0  0  0
 36 24  1  0  0  0  0
 36 29  1  0  0  0  0
 37 29  2  0  0  0  0
 37 38  1  0  0  0  0
 39 12  1  0  0  0  0
 40 41  1  0  0  0  0
 42 44  1  0  0  0  0
 42 57  1  0  0  0  0
 43 42  1  0  0  0  0
 45 40  2  0  0  0  0
 45 46  1  0  0  0  0
 47 49  1  0  0  0  0
 47 61  1  0  0  0  0
 48 47  1  0  0  0  0
 50 20  1  0  0  0  0
 51 50  1  0  0  0  0
 52 53  1  0  0  0  0
 54 10  1  0  0  0  0
 55 45  1  0  0  0  0
 56 55  1  0  0  0  0
 57 59  1  0  0  0  0
 57 58  1  0  0  0  0
 60 57  1  0  0  0  0
 61 63  1  0  0  0  0
 61 42  1  0  0  0  0
 62 61  1  0  0  0  0
 64 30  1  0  0  0  0
 64 55  2  0  0  0  0
 65 64  1  0  0  0  0
 66 54  1  0  0  0  0
 66 50  2  0  0  0  0
 67 66  1  0  0  0  0
 68 70  1  0  0  0  0
 68 47  1  0  0  0  0
 69 68  1  0  0  0  0
 71  2  1  0  0  0  0
 71 68  1  0  0  0  0
 72 71  1  0  0  0  0
 73 71  1  0  0  0  0
M  END
