1,19,33
 OpenBabel05122313063D

 68 73  0  0  0  0  0  0  0  0999 V2000
   -0.1575   -3.4427    0.4828 N   0  0  0  0  0  0  0  0  0  0  0  0
   -0.3971   -4.1371   -0.2397 H   0  0  0  0  0  0  0  0  0  0  0  0
    2.6462   -2.2262   -0.3395 N   0  0  0  0  0  0  0  0  0  0  0  0
    2.5054   -0.0990   -0.8093 N   0  0  0  0  0  0  0  0  0  0  0  0
   -2.9283   -1.9634    0.2832 N   0  0  0  0  0  0  0  0  0  0  0  0
   -2.7933   -0.1280   -0.8910 N   0  0  0  0  0  0  0  0  0  0  0  0
    2.2727   -3.6062   -0.0368 C   0  0  0  0  0  0  0  0  0  0  0  0
    3.1810   -4.1156    0.3351 H   0  0  0  0  0  0  0  0  0  0  0  0
    1.9774   -4.1289   -0.9730 H   0  0  0  0  0  0  0  0  0  0  0  0
    1.1725   -3.7452    1.0193 C   0  0  0  0  0  0  0  0  0  0  0  0
    1.2254   -4.7752    1.4481 H   0  0  0  0  0  0  0  0  0  0  0  0
    1.3799   -3.0436    1.8545 H   0  0  0  0  0  0  0  0  0  0  0  0
   -1.2218   -3.4036    1.4903 C   0  0  0  0  0  0  0  0  0  0  0  0
   -1.0223   -2.5548    2.1794 H   0  0  0  0  0  0  0  0  0  0  0  0
   -1.2339   -4.3282    2.1178 H   0  0  0  0  0  0  0  0  0  0  0  0
   -2.6163   -3.2594    0.8842 C   0  0  0  0  0  0  0  0  0  0  0  0
   -2.7885   -4.0627    0.1322 H   0  0  0  0  0  0  0  0  0  0  0  0
   -3.3522   -3.4280    1.6938 H   0  0  0  0  0  0  0  0  0  0  0  0
    1.7504   -1.2215   -0.6115 C   0  0  0  0  0  2  0  0  0  0  0  0
    3.8662   -0.3707   -0.6721 C   0  0  0  0  0  0  0  0  0  0  0  0
    3.9628   -1.7520   -0.3776 C   0  0  0  0  0  0  0  0  0  0  0  0
    5.2087   -2.3698   -0.1875 C   0  0  0  0  0  0  0  0  0  0  0  0
    5.3036   -3.4432    0.0290 H   0  0  0  0  0  0  0  0  0  0  0  0
    6.3445   -1.5552   -0.2914 C   0  0  0  0  0  0  0  0  0  0  0  0
    7.3386   -2.0029   -0.1484 H   0  0  0  0  0  0  0  0  0  0  0  0
    6.2440   -0.1731   -0.5746 C   0  0  0  0  0  0  0  0  0  0  0  0
    7.1617    0.4290   -0.6414 H   0  0  0  0  0  0  0  0  0  0  0  0
    5.0027    0.4462   -0.7686 C   0  0  0  0  0  0  0  0  0  0  0  0
    4.9203    1.5221   -0.9741 H   0  0  0  0  0  0  0  0  0  0  0  0
    1.9465    1.2225   -1.0616 C   0  0  0  0  0  0  0  0  0  0  0  0
    0.8580    1.0569   -1.2115 H   0  0  0  0  0  0  0  0  0  0  0  0
    2.3609    1.6177   -2.0121 H   0  0  0  0  0  0  0  0  0  0  0  0
   -2.0552   -1.1837   -0.4354 C   0  0  0  0  0  2  0  0  0  0  0  0
   -4.1175   -0.2093   -0.4646 C   0  0  0  0  0  0  0  0  0  0  0  0
   -4.2137   -1.4082    0.2821 C   0  0  0  0  0  0  0  0  0  0  0  0
   -5.4314   -1.8198    0.8453 C   0  0  0  0  0  0  0  0  0  0  0  0
   -5.5275   -2.7555    1.4137 H   0  0  0  0  0  0  0  0  0  0  0  0
   -6.5375   -0.9812    0.6493 C   0  0  0  0  0  0  0  0  0  0  0  0
   -7.5088   -1.2677    1.0779 H   0  0  0  0  0  0  0  0  0  0  0  0
   -6.4351    0.2236   -0.0842 C   0  0  0  0  0  0  0  0  0  0  0  0
   -7.3274    0.8544   -0.2068 H   0  0  0  0  0  0  0  0  0  0  0  0
   -5.2231    0.6325   -0.6556 C   0  0  0  0  0  0  0  0  0  0  0  0
   -5.1392    1.5743   -1.2146 H   0  0  0  0  0  0  0  0  0  0  0  0
   -2.2394    0.9586   -1.6926 C   0  0  0  0  0  0  0  0  0  0  0  0
   -2.9212    1.1505   -2.5453 H   0  0  0  0  0  0  0  0  0  0  0  0
   -1.2904    0.5552   -2.1065 H   0  0  0  0  0  0  0  0  0  0  0  0
    2.1767    2.2049    0.0684 C   0  0  0  0  0  0  0  0  0  0  0  0
    2.2998    3.5769   -0.2175 C   0  0  0  0  0  0  0  0  0  0  0  0
    2.2696    3.9212   -1.2635 H   0  0  0  0  0  0  0  0  0  0  0  0
    2.4505    4.5097    0.8191 C   0  0  0  0  0  0  0  0  0  0  0  0
    2.5450    5.5797    0.5811 H   0  0  0  0  0  0  0  0  0  0  0  0
    2.4904    4.0783    2.1543 C   0  0  0  0  0  0  0  0  0  0  0  0
    2.6196    4.8081    2.9675 H   0  0  0  0  0  0  0  0  0  0  0  0
    2.3743    2.7097    2.4466 C   0  0  0  0  0  0  0  0  0  0  0  0
    2.4123    2.3641    3.4907 H   0  0  0  0  0  0  0  0  0  0  0  0
    2.2152    1.7784    1.4095 C   0  0  0  0  0  0  0  0  0  0  0  0
    2.1266    0.7065    1.6452 H   0  0  0  0  0  0  0  0  0  0  0  0
   -1.9910    2.2312   -0.9089 C   0  0  0  0  0  0  0  0  0  0  0  0
   -2.3999    3.4749   -1.4243 C   0  0  0  0  0  0  0  0  0  0  0  0
   -2.9378    3.5176   -2.3852 H   0  0  0  0  0  0  0  0  0  0  0  0
   -2.1230    4.6602   -0.7248 C   0  0  0  0  0  0  0  0  0  0  0  0
   -2.4487    5.6269   -1.1371 H   0  0  0  0  0  0  0  0  0  0  0  0
   -1.4372    4.6099    0.4983 C   0  0  0  0  0  0  0  0  0  0  0  0
   -1.2174    5.5378    1.0470 H   0  0  0  0  0  0  0  0  0  0  0  0
   -1.0293    3.3719    1.0204 C   0  0  0  0  0  0  0  0  0  0  0  0
   -0.4760    3.3279    1.9698 H   0  0  0  0  0  0  0  0  0  0  0  0
   -1.3061    2.1895    0.3216 C   0  0  0  0  0  0  0  0  0  0  0  0
   -0.9754    1.2196    0.7271 H   0  0  0  0  0  0  0  0  0  0  0  0
  1 10  1  0  0  0  0
  1 13  1  0  0  0  0
  2  1  1  0  0  0  0
  3  7  1  0  0  0  0
  4 20  1  0  0  0  0
  4 19  1  0  0  0  0
  5 16  1  0  0  0  0
  6 34  1  0  0  0  0
  6 33  1  0  0  0  0
  7  8  1  0  0  0  0
  7 10  1  0  0  0  0
  9  7  1  0  0  0  0
 10 11  1  0  0  0  0
 10 12  1  0  0  0  0
 13 15  1  0  0  0  0
 13 14  1  0  0  0  0
 16 13  1  0  0  0  0
 16 18  1  0  0  0  0
 17 16  1  0  0  0  0
 19  3  1  0  0  0  0
 20 21  1  0  0  0  0
 21  3  1  0  0  0  0
 21 22  2  0  0  0  0
 22 23  1  0  0  0  0
 24 22  1  0  0  0  0
 24 25  1  0  0  0  0
 26 24  2  0  0  0  0
 27 26  1  0  0  0  0
 28 20  2  0  0  0  0
 28 26  1  0  0  0  0
 29 28  1  0  0  0  0
 30  4  1  0  0  0  0
 30 47  1  0  0  0  0
 31 30  1  0  0  0  0
 32 30  1  0  0  0  0
 33  5  1  0  0  0  0
 34 35  1  0  0  0  0
 35  5  1  0  0  0  0
 35 36  2  0  0  0  0
 36 37  1  0  0  0  0
 38 36  1  0  0  0  0
 38 39  1  0  0  0  0
 40 38  2  0  0  0  0
 41 40  1  0  0  0  0
 42 34  2  0  0  0  0
 42 40  1  0  0  0  0
 43 42  1  0  0  0  0
 44 58  1  0  0  0  0
 44  6  1  0  0  0  0
 45 44  1  0  0  0  0
 46 44  1  0  0  0  0
 47 56  1  0  0  0  0
 48 47  2  0  0  0  0
 48 50  1  0  0  0  0
 49 48  1  0  0  0  0
 50 52  2  0  0  0  0
 51 50  1  0  0  0  0
 52 54  1  0  0  0  0
 52 53  1  0  0  0  0
 54 55  1  0  0  0  0
 56 57  1  0  0  0  0
 56 54  2  0  0  0  0
 58 67  1  0  0  0  0
 59 58  2  0  0  0  0
 59 61  1  0  0  0  0
 60 59  1  0  0  0  0
 61 63  2  0  0  0  0
 62 61  1  0  0  0  0
 63 65  1  0  0  0  0
 63 64  1  0  0  0  0
 65 66  1  0  0  0  0
 67 68  1  0  0  0  0
 67 65  2  0  0  0  0
M  END
