1,6,7
 OpenBabel05122313063D

 43 45  0  0  1  0  0  0  0  0999 V2000
   -0.2302    1.9914   -0.5482 N   0  0  0  0  0  2  0  0  0  0  0  0
   -2.5674   -1.8080   -0.2222 N   0  0  0  0  0  0  0  0  0  0  0  0
   -2.8785    0.3166   -0.3992 N   0  0  0  0  0  0  0  0  0  0  0  0
    2.6950    0.8520   -0.4830 N   0  0  0  0  0  0  0  0  0  0  0  0
    2.7990   -1.2864   -0.2344 N   0  0  0  0  0  0  0  0  0  0  0  0
   -1.8964   -0.6363   -0.4283 C   0  0  0  0  0  2  0  0  0  0  0  0
    1.9104   -0.2693   -0.4399 C   0  0  0  0  0  2  0  0  0  0  0  0
   -1.3370   -3.3452    1.2960 C   0  0  0  0  0  0  0  0  0  0  0  0
   -0.8348   -4.3314    1.3449 H   0  0  0  0  0  0  0  0  0  0  0  0
   -2.1335   -3.3262    2.0657 H   0  0  0  0  0  0  0  0  0  0  0  0
   -0.5940   -2.5602    1.5423 H   0  0  0  0  0  0  0  0  0  0  0  0
   -1.9024   -3.1088   -0.1005 C   0  0  0  0  0  0  0  0  0  0  0  0
   -1.0992   -3.1276   -0.8638 H   0  0  0  0  0  0  0  0  0  0  0  0
   -2.6395   -3.8875   -0.3786 H   0  0  0  0  0  0  0  0  0  0  0  0
   -3.9281   -1.5964   -0.0645 C   0  0  0  0  0  0  0  0  0  0  0  0
   -4.6377   -2.4103    0.1137 H   0  0  0  0  0  0  0  0  0  0  0  0
   -4.1289   -0.2440   -0.1835 C   0  0  0  0  0  0  0  0  0  0  0  0
   -5.0475    0.3494   -0.1433 H   0  0  0  0  0  0  0  0  0  0  0  0
   -2.6474    1.7420   -0.6732 C   0  0  0  0  0  0  0  0  0  0  0  0
   -3.5499    2.2919   -0.3498 H   0  0  0  0  0  0  0  0  0  0  0  0
   -2.5343    1.8788   -1.7683 H   0  0  0  0  0  0  0  0  0  0  0  0
   -1.4206    2.3070    0.0121 C   0  0  2  0  0  3  0  0  0  0  0  0
   -1.5181    3.1363    1.1413 C   0  0  0  0  0  0  0  0  0  0  0  0
   -2.5014    3.3742    1.5729 H   0  0  0  0  0  0  0  0  0  0  0  0
   -0.3439    3.6673    1.6942 C   0  0  0  0  0  0  0  0  0  0  0  0
   -0.3882    4.3210    2.5776 H   0  0  0  0  0  0  0  0  0  0  0  0
    0.8856    3.3684    1.0899 C   0  0  0  0  0  0  0  0  0  0  0  0
    1.8228    3.7916    1.4803 H   0  0  0  0  0  0  0  0  0  0  0  0
    0.9004    2.5305   -0.0370 C   0  0  0  0  0  0  0  0  0  0  0  0
    2.1827    2.1989   -0.7715 C   0  0  0  0  0  0  0  0  0  0  0  0
    1.9976    2.2837   -1.8620 H   0  0  0  0  0  0  0  0  0  0  0  0
    2.9748    2.9203   -0.4996 H   0  0  0  0  0  0  0  0  0  0  0  0
    4.0367    0.5433   -0.3171 C   0  0  0  0  0  0  0  0  0  0  0  0
    4.8274    1.2998   -0.3365 H   0  0  0  0  0  0  0  0  0  0  0  0
    4.1014   -0.8176   -0.1542 C   0  0  0  0  0  0  0  0  0  0  0  0
    4.9608   -1.4752    0.0092 H   0  0  0  0  0  0  0  0  0  0  0  0
    2.4063   -2.6867   -0.0565 C   0  0  0  0  0  0  0  0  0  0  0  0
    3.0276   -3.3083   -0.7334 H   0  0  0  0  0  0  0  0  0  0  0  0
    1.3590   -2.7446   -0.4133 H   0  0  0  0  0  0  0  0  0  0  0  0
    2.5234   -3.1549    1.3901 C   0  0  0  0  0  0  0  0  0  0  0  0
    2.1904   -4.2079    1.4750 H   0  0  0  0  0  0  0  0  0  0  0  0
    1.8929   -2.5358    2.0588 H   0  0  0  0  0  0  0  0  0  0  0  0
    3.5683   -3.1030    1.7555 H   0  0  0  0  0  0  0  0  0  0  0  0
  1 29  1  0  0  0  0
  1 22  1  0  0  0  0
  2 12  1  0  0  0  0
  2 15  1  0  0  0  0
  3 17  1  0  0  0  0
  4  7  1  0  0  0  0
  4 33  1  0  0  0  0
  5 35  1  0  0  0  0
  5 37  1  0  0  0  0
  6  3  1  0  0  0  0
  6  2  1  0  0  0  0
  7  5  1  0  0  0  0
  8  9  1  0  0  0  0
  8 11  1  0  0  0  0
  8 10  1  0  0  0  0
 12  8  1  0  0  0  0
 13 12  1  0  0  0  0
 14 12  1  0  0  0  0
 15 16  1  0  0  0  0
 17 18  1  0  0  0  0
 17 15  2  0  0  0  0
 19  3  1  0  0  0  0
 19 20  1  0  0  0  0
 21 19  1  0  0  0  0
 22 19  1  6  0  0  0
 22 23  1  0  0  0  0
 23 24  1  0  0  0  0
 23 25  2  0  0  0  0
 25 26  1  0  0  0  0
 27 28  1  0  0  0  0
 27 25  1  0  0  0  0
 29 27  2  0  0  0  0
 30 32  1  0  0  0  0
 30  4  1  0  0  0  0
 30 29  1  0  0  0  0
 31 30  1  0  0  0  0
 33 35  2  0  0  0  0
 34 33  1  0  0  0  0
 35 36  1  0  0  0  0
 37 40  1  0  0  0  0
 38 37  1  0  0  0  0
 39 37  1  0  0  0  0
 40 41  1  0  0  0  0
 40 43  1  0  0  0  0
 40 42  1  0  0  0  0
M  END
