1,8,24
 OpenBabel05122313063D

 45 46  0  0  1  0  0  0  0  0999 V2000
    2.2987   -0.0201    0.0966 N   0  0  1  0  0  0  0  0  0  0  0  0
    2.8507    1.2226   -0.4855 C   0  0  0  0  0  0  0  0  0  0  0  0
    2.9207    1.0716   -1.5811 H   0  0  0  0  0  0  0  0  0  0  0  0
    3.8844    1.4167   -0.1120 H   0  0  0  0  0  0  0  0  0  0  0  0
    2.0068    2.4920   -0.2228 C   0  0  0  0  0  0  0  0  0  0  0  0
    2.0816    2.7920    0.8453 H   0  0  0  0  0  0  0  0  0  0  0  0
    2.4630    3.3244   -0.7996 H   0  0  0  0  0  0  0  0  0  0  0  0
    0.5752    2.3809   -0.5575 C   0  0  0  0  0  2  0  0  0  0  0  0
   -0.6574    2.3688   -0.6992 C   0  0  0  0  0  2  0  0  0  0  0  0
   -2.1266    2.4001   -0.6899 C   0  0  0  0  0  0  0  0  0  0  0  0
   -2.5042    2.9372   -1.5855 H   0  0  0  0  0  0  0  0  0  0  0  0
   -2.4393    3.0168    0.1799 H   0  0  0  0  0  0  0  0  0  0  0  0
   -2.8205    1.0107   -0.6478 C   0  0  0  0  0  0  0  0  0  0  0  0
   -3.8883    1.1751   -0.3628 H   0  0  0  0  0  0  0  0  0  0  0  0
   -2.8220    0.5893   -1.6735 H   0  0  0  0  0  0  0  0  0  0  0  0
   -2.1820    0.0193    0.2362 N   0  0  2  0  0  0  0  0  0  0  0  0
   -2.7235   -1.3355    0.0271 C   0  0  0  0  0  0  0  0  0  0  0  0
   -3.8328   -1.3162   -0.0835 H   0  0  0  0  0  0  0  0  0  0  0  0
   -2.5057   -1.9315    0.9322 H   0  0  0  0  0  0  0  0  0  0  0  0
   -2.1244   -2.0911   -1.1916 C   0  0  0  0  0  0  0  0  0  0  0  0
   -2.5812   -3.1036   -1.2270 H   0  0  0  0  0  0  0  0  0  0  0  0
   -2.4139   -1.6025   -2.1466 H   0  0  0  0  0  0  0  0  0  0  0  0
   -0.6629   -2.2155   -1.1111 C   0  0  0  0  0  2  0  0  0  0  0  0
    0.5527   -2.3010   -0.8805 C   0  0  0  0  0  2  0  0  0  0  0  0
    1.9451   -2.4840   -0.4354 C   0  0  0  0  0  0  0  0  0  0  0  0
    2.4235   -3.3026   -1.0138 H   0  0  0  0  0  0  0  0  0  0  0  0
    1.9119   -2.8419    0.6178 H   0  0  0  0  0  0  0  0  0  0  0  0
    2.8507   -1.2336   -0.5442 C   0  0  0  0  0  0  0  0  0  0  0  0
    3.8524   -1.4947   -0.1297 H   0  0  0  0  0  0  0  0  0  0  0  0
    2.9964   -1.0018   -1.6179 H   0  0  0  0  0  0  0  0  0  0  0  0
    2.3503   -0.0372    1.5869 C   0  0  0  0  0  0  0  0  0  0  0  0
    3.1576    0.6529    1.9204 H   0  0  0  0  0  0  0  0  0  0  0  0
    2.6682   -1.0490    1.9148 H   0  0  0  0  0  0  0  0  0  0  0  0
    1.0301    0.3238    2.2950 C   0  0  0  0  0  0  0  0  0  0  0  0
    1.2709    0.6387    3.3324 H   0  0  0  0  0  0  0  0  0  0  0  0
    0.5910    1.2198    1.8090 H   0  0  0  0  0  0  0  0  0  0  0  0
    0.0077   -0.8245    2.3401 C   0  0  0  0  0  0  0  0  0  0  0  0
    0.3415   -1.5639    3.0988 H   0  0  0  0  0  0  0  0  0  0  0  0
    0.0166   -1.3749    1.3770 H   0  0  0  0  0  0  0  0  0  0  0  0
   -1.4437   -0.4334    2.6603 C   0  0  0  0  0  0  0  0  0  0  0  0
   -2.0249   -1.3627    2.8376 H   0  0  0  0  0  0  0  0  0  0  0  0
   -1.4820    0.1082    3.6299 H   0  0  0  0  0  0  0  0  0  0  0  0
   -2.1840    0.4609    1.6509 C   0  0  0  0  0  0  0  0  0  0  0  0
   -3.2349    0.5955    2.0081 H   0  0  0  0  0  0  0  0  0  0  0  0
   -1.7243    1.4696    1.6656 H   0  0  0  0  0  0  0  0  0  0  0  0
  1 28  1  6  0  0  0
  1 31  1  0  0  0  0
  2  5  1  0  0  0  0
  2  4  1  0  0  0  0
  2  1  1  0  0  0  0
  3  2  1  0  0  0  0
  5  6  1  0  0  0  0
  7  5  1  0  0  0  0
  8  5  1  0  0  0  0
  9 10  1  0  0  0  0
  9  8  1  0  0  0  0
 10 13  1  0  0  0  0
 10 12  1  0  0  0  0
 11 10  1  0  0  0  0
 13 14  1  0  0  0  0
 15 13  1  0  0  0  0
 16 13  1  6  0  0  0
 16 43  1  0  0  0  0
 17 16  1  0  0  0  0
 17 19  1  0  0  0  0
 18 17  1  0  0  0  0
 20 23  1  0  0  0  0
 20 17  1  0  0  0  0
 21 20  1  0  0  0  0
 22 20  1  0  0  0  0
 23 24  1  0  0  0  0
 24 25  1  0  0  0  0
 25 27  1  0  0  0  0
 26 25  1  0  0  0  0
 28 25  1  0  0  0  0
 28 29  1  0  0  0  0
 30 28  1  0  0  0  0
 31 33  1  0  0  0  0
 31 32  1  0  0  0  0
 31 34  1  0  0  0  0
 34 37  1  0  0  0  0
 34 35  1  0  0  0  0
 36 34  1  0  0  0  0
 37 40  1  0  0  0  0
 37 38  1  0  0  0  0
 39 37  1  0  0  0  0
 40 41  1  0  0  0  0
 40 42  1  0  0  0  0
 43 45  1  0  0  0  0
 43 44  1  0  0  0  0
 43 40  1  0  0  0  0
M  END
