1,26,59
 OpenBabel05122313063D

 61 65  0  0  1  0  0  0  0  0999 V2000
    1.9950    0.0360    0.0416 C   0  0  0  0  0  2  0  0  0  0  0  0
    3.8209    1.1853    0.7895 C   0  0  0  0  0  0  0  0  0  0  0  0
    4.2458    0.2203   -0.1544 C   0  0  0  0  0  0  0  0  0  0  0  0
    5.5967    0.0963   -0.5127 C   0  0  0  0  0  0  0  0  0  0  0  0
    5.9336   -0.6476   -1.2471 H   0  0  0  0  0  0  0  0  0  0  0  0
    6.5028    0.9638    0.1118 C   0  0  0  0  0  0  0  0  0  0  0  0
    7.5708    0.8963   -0.1406 H   0  0  0  0  0  0  0  0  0  0  0  0
    6.0773    1.9215    1.0607 C   0  0  0  0  0  0  0  0  0  0  0  0
    6.8215    2.5806    1.5305 H   0  0  0  0  0  0  0  0  0  0  0  0
    4.7279    2.0507    1.4174 C   0  0  0  0  0  0  0  0  0  0  0  0
    4.4080    2.7992    2.1562 H   0  0  0  0  0  0  0  0  0  0  0  0
    1.5108    1.8546    1.6413 C   0  0  0  0  0  0  0  0  0  0  0  0
    2.0907    2.5571    2.2652 H   0  0  0  0  0  0  0  0  0  0  0  0
    0.9155    1.2058    2.3189 H   0  0  0  0  0  0  0  0  0  0  0  0
    0.5786    2.6144    0.7211 C   0  0  1  0  0  3  0  0  0  0  0  0
    0.5013    4.0139    0.7257 C   0  0  0  0  0  0  0  0  0  0  0  0
    1.1267    4.5899    1.4223 H   0  0  0  0  0  0  0  0  0  0  0  0
   -0.3720    4.6569   -0.1604 C   0  0  0  0  0  0  0  0  0  0  0  0
   -0.4488    5.7539   -0.1732 H   0  0  0  0  0  0  0  0  0  0  0  0
   -1.1460    3.8782   -1.0299 C   0  0  0  0  0  0  0  0  0  0  0  0
   -1.8444    4.3458   -1.7383 H   0  0  0  0  0  0  0  0  0  0  0  0
   -1.0283    2.4819   -0.9938 C   0  0  0  0  0  0  0  0  0  0  0  0
   -1.8466    1.5816   -1.8971 C   0  0  0  0  0  0  0  0  0  0  0  0
   -2.5252    2.1844   -2.5257 H   0  0  0  0  0  0  0  0  0  0  0  0
   -1.1687    1.0148   -2.5703 H   0  0  0  0  0  0  0  0  0  0  0  0
   -2.0493   -0.2574   -0.2664 C   0  0  0  0  0  2  0  0  0  0  0  0
   -4.0302    0.6003   -1.0059 C   0  0  0  0  0  0  0  0  0  0  0  0
   -4.2988   -0.3926   -0.0332 C   0  0  0  0  0  0  0  0  0  0  0  0
   -5.6129   -0.7110    0.3401 C   0  0  0  0  0  0  0  0  0  0  0  0
   -5.8290   -1.4772    1.0971 H   0  0  0  0  0  0  0  0  0  0  0  0
   -6.6435   -0.0058   -0.2956 C   0  0  0  0  0  0  0  0  0  0  0  0
   -7.6875   -0.2273   -0.0310 H   0  0  0  0  0  0  0  0  0  0  0  0
   -6.3735    0.9818   -1.2705 C   0  0  0  0  0  0  0  0  0  0  0  0
   -7.2117    1.5097   -1.7476 H   0  0  0  0  0  0  0  0  0  0  0  0
   -5.0614    1.3024   -1.6456 C   0  0  0  0  0  0  0  0  0  0  0  0
   -4.8629    2.0683   -2.4087 H   0  0  0  0  0  0  0  0  0  0  0  0
    3.1201   -1.5414   -1.5691 C   0  0  0  0  0  0  0  0  0  0  0  0
    3.7231   -1.1938   -2.4348 H   0  0  0  0  0  0  0  0  0  0  0  0
    2.0780   -1.6854   -1.9109 H   0  0  0  0  0  0  0  0  0  0  0  0
    3.6722   -2.8530   -1.0037 C   0  0  0  0  0  0  0  0  0  0  0  0
    4.7174   -2.7071   -0.6573 H   0  0  0  0  0  0  0  0  0  0  0  0
    3.0694   -3.1186   -0.1108 H   0  0  0  0  0  0  0  0  0  0  0  0
    3.6030   -3.9757   -2.0375 C   0  0  0  0  0  0  0  0  0  0  0  0
    2.5541   -4.1701   -2.3415 H   0  0  0  0  0  0  0  0  0  0  0  0
    4.0121   -4.9188   -1.6265 H   0  0  0  0  0  0  0  0  0  0  0  0
    4.1821   -3.7312   -2.9522 H   0  0  0  0  0  0  0  0  0  0  0  0
   -2.8888   -1.8535    1.4771 C   0  0  0  0  0  0  0  0  0  0  0  0
   -1.9916   -2.4574    1.2399 H   0  0  0  0  0  0  0  0  0  0  0  0
   -3.7629   -2.5347    1.4584 H   0  0  0  0  0  0  0  0  0  0  0  0
   -2.7466   -1.1718    2.8402 C   0  0  0  0  0  0  0  0  0  0  0  0
   -3.6328   -0.5279    3.0299 H   0  0  0  0  0  0  0  0  0  0  0  0
   -1.8668   -0.4923    2.7939 H   0  0  0  0  0  0  0  0  0  0  0  0
   -2.5711   -2.1884    3.9672 C   0  0  0  0  0  0  0  0  0  0  0  0
   -3.4460   -2.8665    4.0423 H   0  0  0  0  0  0  0  0  0  0  0  0
   -2.4568   -1.6850    4.9468 H   0  0  0  0  0  0  0  0  0  0  0  0
   -1.6734   -2.8189    3.8036 H   0  0  0  0  0  0  0  0  0  0  0  0
    2.4359    1.0252    0.8809 N   0  0  0  0  0  0  0  0  0  0  0  0
    3.0966   -0.4542   -0.5868 N   0  0  0  0  0  0  0  0  0  0  0  0
   -0.1771    1.8728   -0.1286 N   0  0  0  0  0  2  0  0  0  0  0  0
   -2.6374    0.6398   -1.1163 N   0  0  0  0  0  0  0  0  0  0  0  0
   -3.0588   -0.8920    0.3852 N   0  0  0  0  0  0  0  0  0  0  0  0
  1 57  1  0  0  0  0
  2 57  1  0  0  0  0
  2 10  1  0  0  0  0
  3  2  2  0  0  0  0
  4  3  1  0  0  0  0
  4  6  2  0  0  0  0
  5  4  1  0  0  0  0
  6  8  1  0  0  0  0
  7  6  1  0  0  0  0
  8 10  2  0  0  0  0
  8  9  1  0  0  0  0
 10 11  1  0  0  0  0
 12 13  1  0  0  0  0
 12 14  1  0  0  0  0
 15 16  1  0  0  0  0
 15 12  1  6  0  0  0
 16 17  1  0  0  0  0
 18 16  2  0  0  0  0
 19 18  1  0  0  0  0
 20 22  2  0  0  0  0
 20 18  1  0  0  0  0
 21 20  1  0  0  0  0
 22 59  1  0  0  0  0
 23 60  1  0  0  0  0
 23 22  1  0  0  0  0
 24 23  1  0  0  0  0
 25 23  1  0  0  0  0
 26 61  1  0  0  0  0
 27 28  1  0  0  0  0
 28 29  2  0  0  0  0
 28 61  1  0  0  0  0
 29 30  1  0  0  0  0
 31 32  1  0  0  0  0
 31 29  1  0  0  0  0
 33 31  2  0  0  0  0
 34 33  1  0  0  0  0
 35 33  1  0  0  0  0
 35 27  2  0  0  0  0
 36 35  1  0  0  0  0
 37 40  1  0  0  0  0
 37 58  1  0  0  0  0
 38 37  1  0  0  0  0
 39 37  1  0  0  0  0
 40 41  1  0  0  0  0
 40 42  1  0  0  0  0
 43 45  1  0  0  0  0
 43 40  1  0  0  0  0
 44 43  1  0  0  0  0
 46 43  1  0  0  0  0
 47 50  1  0  0  0  0
 48 47  1  0  0  0  0
 49 47  1  0  0  0  0
 50 51  1  0  0  0  0
 50 53  1  0  0  0  0
 52 50  1  0  0  0  0
 53 54  1  0  0  0  0
 53 55  1  0  0  0  0
 56 53  1  0  0  0  0
 57 12  1  0  0  0  0
 58  3  1  0  0  0  0
 58  1  1  0  0  0  0
 59 15  1  0  0  0  0
 60 27  1  0  0  0  0
 60 26  1  0  0  0  0
 61 47  1  0  0  0  0
M  END
