1,19,29
q = 0.0, confidence = 0.676

 29 31  0  0  0  0  0  0  0  0999 V2000
    1.4169   -0.8302   -1.9804 N   0  0  0  0  0  2  0  0  0  0  0  0
    1.0350   -0.4954   -3.2267 C   0  0  0  0  0  3  0  0  0  0  0  0
    0.6533    0.5299   -3.3518 H   0  0  0  0  0  0  0  0  0  0  0  0
    1.1097   -1.3848   -4.3022 C   0  0  0  0  0  0  0  0  0  0  0  0
    0.7858   -1.0663   -5.3027 H   0  0  0  0  0  0  0  0  0  0  0  0
    1.6026   -2.6789   -4.0616 C   0  0  0  0  0  0  0  0  0  0  0  0
    1.6784   -3.4092   -4.8812 H   0  0  0  0  0  0  0  0  0  0  0  0
    1.9925   -3.0321   -2.7682 C   0  0  0  0  0  0  0  0  0  0  0  0
    2.3752   -4.0392   -2.5537 H   0  0  0  0  0  0  0  0  0  0  0  0
    1.8936   -2.0950   -1.7169 C   0  0  0  0  0  0  0  0  0  0  0  0
    2.2398   -2.3599   -0.3158 C   0  0  0  0  0  0  0  0  0  0  0  0
    2.6890   -3.5883    0.2282 C   0  0  0  0  0  0  0  0  0  0  0  0
    2.8611   -4.4662   -0.4136 H   0  0  0  0  0  0  0  0  0  0  0  0
    2.9043   -3.6884    1.6103 C   0  0  0  0  0  0  0  0  0  0  0  0
    3.2542   -4.6423    2.0329 H   0  0  0  0  0  0  0  0  0  0  0  0
    2.6635   -2.5982    2.4744 C   0  0  0  0  0  0  0  0  0  0  0  0
    2.8177   -2.7256    3.5576 H   0  0  0  0  0  0  0  0  0  0  0  0
    2.2159   -1.3679    1.9555 C   0  0  0  0  0  0  0  0  0  0  0  0
    2.0386   -1.2673    0.5544 C   0  0  0  0  0  3  0  0  0  0  0  0
    1.8374   -0.1333    2.6683 C   0  0  0  0  0  0  0  0  0  0  0  0
    1.9003    0.0487    4.0641 C   0  0  0  0  0  0  0  0  0  0  0  0
    2.2753   -0.7646    4.7058 H   0  0  0  0  0  0  0  0  0  0  0  0
    1.4855    1.2562    4.6433 C   0  0  0  0  0  0  0  0  0  0  0  0
    1.5379    1.3899    5.7346 H   0  0  0  0  0  0  0  0  0  0  0  0
    1.0013    2.2921    3.8274 C   0  0  0  0  0  0  0  0  0  0  0  0
    0.6713    3.2403    4.2806 H   0  0  0  0  0  0  0  0  0  0  0  0
    0.9336    2.1245    2.4316 C   0  0  0  0  0  0  0  0  0  0  0  0
    0.5485    2.9457    1.8066 H   0  0  0  0  0  0  0  0  0  0  0  0
    1.3469    0.9255    1.8311 C   0  0  0  0  0  3  0  0  0  0  0  0
  1 10  1  0  0  0  0
  2  1  1  0  0  0  0
  3  2  1  0  0  0  0
  4  6  2  0  0  0  0
  4  2  1  0  0  0  0
  5  4  1  0  0  0  0
  6  8  1  0  0  0  0
  7  6  1  0  0  0  0
  8  9  1  0  0  0  0
  8 10  2  0  0  0  0
 10 11  1  0  0  0  0
 11 12  2  0  0  0  0
 11 19  1  0  0  0  0
 12 14  1  0  0  0  0
 13 12  1  0  0  0  0
 14 15  1  0  0  0  0
 14 16  2  0  0  0  0
 16 17  1  0  0  0  0
 18 16  1  0  0  0  0
 18 20  1  0  0  0  0
 19 18  2  0  0  0  0
 20 21  1  0  0  0  0
 21 23  2  0  0  0  0
 21 22  1  0  0  0  0
 23 24  1  0  0  0  0
 25 26  1  0  0  0  0
 25 23  1  0  0  0  0
 27 25  2  0  0  0  0
 28 27  1  0  0  0  0
 29 27  1  0  0  0  0
 29 20  2  0  0  0  0
M  END
