2,22,32
 OpenBabel05122313063D

 77 81  0  0  1  0  0  0  0  0999 V2000
    3.0566    0.9552   -0.2316 N   0  0  0  0  0  0  0  0  0  0  0  0
    1.8873    0.2855   -0.1355 C   0  0  0  0  0  2  0  0  0  0  0  0
    2.2400   -1.0726   -0.1110 N   0  0  0  0  0  0  0  0  0  0  0  0
    3.6318   -1.2377   -0.1715 C   0  0  0  0  0  0  0  0  0  0  0  0
    4.4849   -2.3566   -0.1681 C   0  0  0  0  0  0  0  0  0  0  0  0
    4.1060   -3.3809   -0.1102 H   0  0  0  0  0  0  0  0  0  0  0  0
    5.8676   -2.1233   -0.2365 C   0  0  0  0  0  0  0  0  0  0  0  0
    6.8066   -3.0888   -0.2409 O   0  0  0  0  0  0  0  0  0  0  0  0
    6.3929   -4.4433   -0.1729 C   0  0  0  0  0  0  0  0  0  0  0  0
    5.8378   -4.6540    0.7682 H   0  0  0  0  0  0  0  0  0  0  0  0
    7.3151   -5.0510   -0.1914 H   0  0  0  0  0  0  0  0  0  0  0  0
    5.7576   -4.7205   -1.0435 H   0  0  0  0  0  0  0  0  0  0  0  0
    6.3927   -0.7774   -0.3059 C   0  0  0  0  0  0  0  0  0  0  0  0
    7.7352   -0.7024   -0.3617 O   0  0  0  0  0  0  0  0  0  0  0  0
    8.3395    0.5804   -0.4318 C   0  0  0  0  0  0  0  0  0  0  0  0
    8.0240    1.1298   -1.3461 H   0  0  0  0  0  0  0  0  0  0  0  0
    9.4297    0.4076   -0.4705 H   0  0  0  0  0  0  0  0  0  0  0  0
    8.0987    1.1934    0.4647 H   0  0  0  0  0  0  0  0  0  0  0  0
    5.5269    0.3248   -0.3079 C   0  0  0  0  0  0  0  0  0  0  0  0
    5.9115    1.3499   -0.3511 H   0  0  0  0  0  0  0  0  0  0  0  0
    4.1463    0.0705   -0.2405 C   0  0  0  0  0  0  0  0  0  0  0  0
   -0.0004   -1.3028    0.0011 N   0  0  0  0  0  2  0  0  0  0  0  0
    1.1800   -1.9710   -0.0531 C   0  0  1  0  0  3  0  0  0  0  0  0
    1.2220   -3.3716   -0.0561 C   0  0  0  0  0  0  0  0  0  0  0  0
    2.1720   -3.9124   -0.1055 H   0  0  0  0  0  0  0  0  0  0  0  0
   -0.0007   -4.0590    0.0016 C   0  0  0  0  0  0  0  0  0  0  0  0
   -0.0008   -5.1583    0.0018 H   0  0  0  0  0  0  0  0  0  0  0  0
   -1.2233   -3.3714    0.0589 C   0  0  0  0  0  0  0  0  0  0  0  0
   -2.1734   -3.9119    0.1086 H   0  0  0  0  0  0  0  0  0  0  0  0
   -1.1809   -1.9708    0.0554 C   0  0  0  0  0  0  0  0  0  0  0  0
   -3.0570    0.9559    0.2320 N   0  0  0  0  0  0  0  0  0  0  0  0
   -1.8878    0.2859    0.1372 C   0  0  0  0  0  2  0  0  0  0  0  0
   -2.2408   -1.0721    0.1128 N   0  0  0  0  0  0  0  0  0  0  0  0
   -3.6326   -1.2369    0.1720 C   0  0  0  0  0  0  0  0  0  0  0  0
   -4.4860   -2.3556    0.1680 C   0  0  0  0  0  0  0  0  0  0  0  0
   -4.1072   -3.3800    0.1108 H   0  0  0  0  0  0  0  0  0  0  0  0
   -5.8687   -2.1220    0.2350 C   0  0  0  0  0  0  0  0  0  0  0  0
   -6.8079   -3.0873    0.2387 O   0  0  0  0  0  0  0  0  0  0  0  0
   -6.3944   -4.4419    0.1716 C   0  0  0  0  0  0  0  0  0  0  0  0
   -5.8384   -4.6531   -0.7689 H   0  0  0  0  0  0  0  0  0  0  0  0
   -7.3167   -5.0494    0.1893 H   0  0  0  0  0  0  0  0  0  0  0  0
   -5.7600   -4.7189    1.0429 H   0  0  0  0  0  0  0  0  0  0  0  0
   -6.3936   -0.7759    0.3035 C   0  0  0  0  0  0  0  0  0  0  0  0
   -7.7361   -0.7007    0.3578 O   0  0  0  0  0  0  0  0  0  0  0  0
   -8.3403    0.5823    0.4268 C   0  0  0  0  0  0  0  0  0  0  0  0
   -8.0257    1.1319    1.3413 H   0  0  0  0  0  0  0  0  0  0  0  0
   -9.4305    0.4097    0.4645 H   0  0  0  0  0  0  0  0  0  0  0  0
   -8.0984    1.1950   -0.4695 H   0  0  0  0  0  0  0  0  0  0  0  0
   -5.5276    0.3260    0.3060 C   0  0  0  0  0  0  0  0  0  0  0  0
   -5.9120    1.3513    0.3485 H   0  0  0  0  0  0  0  0  0  0  0  0
   -4.1469    0.0714    0.2401 C   0  0  0  0  0  0  0  0  0  0  0  0
    3.2115    2.4121   -0.2587 C   0  0  0  0  0  0  0  0  0  0  0  0
    2.3193    2.8229   -0.7658 H   0  0  0  0  0  0  0  0  0  0  0  0
    4.1015    2.6344   -0.8811 H   0  0  0  0  0  0  0  0  0  0  0  0
    3.3409    3.0135    1.1415 C   0  0  0  0  0  0  0  0  0  0  0  0
    4.2228    2.5785    1.6618 H   0  0  0  0  0  0  0  0  0  0  0  0
    2.4408    2.7198    1.7222 H   0  0  0  0  0  0  0  0  0  0  0  0
    3.4464    4.5401    1.1001 C   0  0  0  0  0  0  0  0  0  0  0  0
    4.3188    4.8366    0.4759 H   0  0  0  0  0  0  0  0  0  0  0  0
    2.5486    4.9421    0.5819 H   0  0  0  0  0  0  0  0  0  0  0  0
    3.5664    5.1661    2.4894 C   0  0  0  0  0  0  0  0  0  0  0  0
    2.6876    4.9166    3.1189 H   0  0  0  0  0  0  0  0  0  0  0  0
    3.6339    6.2703    2.4318 H   0  0  0  0  0  0  0  0  0  0  0  0
    4.4700    4.8031    3.0217 H   0  0  0  0  0  0  0  0  0  0  0  0
   -3.2116    2.4128    0.2585 C   0  0  0  0  0  0  0  0  0  0  0  0
   -2.3204    2.8235    0.7672 H   0  0  0  0  0  0  0  0  0  0  0  0
   -4.1028    2.6356    0.8790 H   0  0  0  0  0  0  0  0  0  0  0  0
   -3.3380    3.0139   -1.1422 C   0  0  0  0  0  0  0  0  0  0  0  0
   -2.4368    2.7198   -1.7210 H   0  0  0  0  0  0  0  0  0  0  0  0
   -4.2190    2.5791   -1.6642 H   0  0  0  0  0  0  0  0  0  0  0  0
   -3.4430    4.5405   -1.1015 C   0  0  0  0  0  0  0  0  0  0  0  0
   -2.5461    4.9424   -0.5816 H   0  0  0  0  0  0  0  0  0  0  0  0
   -4.3166    4.8376   -0.4791 H   0  0  0  0  0  0  0  0  0  0  0  0
   -3.5600    5.1663   -2.4911 C   0  0  0  0  0  0  0  0  0  0  0  0
   -2.6800    4.9162   -3.1189 H   0  0  0  0  0  0  0  0  0  0  0  0
   -3.6272    6.2705   -2.4340 H   0  0  0  0  0  0  0  0  0  0  0  0
   -4.4627    4.8034   -3.0252 H   0  0  0  0  0  0  0  0  0  0  0  0
  1  2  1  0  0  0  0
  2  3  1  0  0  0  0
  4  5  1  0  0  0  0
  4  3  1  0  0  0  0
  5  6  1  0  0  0  0
  7  5  2  0  0  0  0
  8  7  1  0  0  0  0
  8  9  1  0  0  0  0
  9 10  1  0  0  0  0
 11  9  1  0  0  0  0
 12  9  1  0  0  0  0
 13  7  1  0  0  0  0
 14 13  1  0  0  0  0
 15 14  1  0  0  0  0
 15 18  1  0  0  0  0
 16 15  1  0  0  0  0
 17 15  1  0  0  0  0
 19 13  2  0  0  0  0
 19 21  1  0  0  0  0
 20 19  1  0  0  0  0
 21  1  1  0  0  0  0
 21  4  2  0  0  0  0
 22 30  1  0  0  0  0
 23  3  1  6  0  0  0
 23 22  1  0  0  0  0
 24 23  1  0  0  0  0
 24 26  2  0  0  0  0
 25 24  1  0  0  0  0
 26 27  1  0  0  0  0
 26 28  1  0  0  0  0
 28 29  1  0  0  0  0
 30 28  2  0  0  0  0
 30 33  1  0  0  0  0
 31 51  1  0  0  0  0
 31 65  1  0  0  0  0
 32 31  1  0  0  0  0
 33 32  1  0  0  0  0
 33 34  1  0  0  0  0
 34 51  1  0  0  0  0
 35 34  2  0  0  0  0
 35 37  1  0  0  0  0
 36 35  1  0  0  0  0
 37 38  1  0  0  0  0
 37 43  2  0  0  0  0
 39 41  1  0  0  0  0
 39 38  1  0  0  0  0
 39 42  1  0  0  0  0
 40 39  1  0  0  0  0
 43 49  1  0  0  0  0
 43 44  1  0  0  0  0
 44 45  1  0  0  0  0
 45 47  1  0  0  0  0
 45 46  1  0  0  0  0
 48 45  1  0  0  0  0
 49 50  1  0  0  0  0
 51 49  2  0  0  0  0
 52  1  1  0  0  0  0
 52 55  1  0  0  0  0
 53 52  1  0  0  0  0
 54 52  1  0  0  0  0
 55 56  1  0  0  0  0
 55 57  1  0  0  0  0
 58 55  1  0  0  0  0
 58 61  1  0  0  0  0
 59 58  1  0  0  0  0
 60 58  1  0  0  0  0
 61 64  1  0  0  0  0
 61 62  1  0  0  0  0
 63 61  1  0  0  0  0
 65 66  1  0  0  0  0
 65 67  1  0  0  0  0
 68 71  1  0  0  0  0
 68 65  1  0  0  0  0
 69 68  1  0  0  0  0
 70 68  1  0  0  0  0
 71 72  1  0  0  0  0
 71 73  1  0  0  0  0
 74 76  1  0  0  0  0
 74 71  1  0  0  0  0
 75 74  1  0  0  0  0
 77 74  1  0  0  0  0
M  END
