1,5,18
 OpenBabel05122313063D

 55 57  0  0  1  0  0  0  0  0999 V2000
    0.0172    1.7306    0.0084 N   0  0  0  0  0  2  0  0  0  0  0  0
   -0.4929    2.3995   -1.0464 C   0  0  1  0  0  3  0  0  0  0  0  0
   -1.0732    1.5183   -2.1364 C   0  0  0  0  0  0  0  0  0  0  0  0
   -2.1573    0.6955   -1.6024 N   0  0  0  0  0  0  0  0  0  0  0  0
   -1.9719   -0.2302   -0.6006 C   0  0  0  0  0  2  0  0  0  0  0  0
   -3.2484   -0.5817   -0.2360 N   0  0  0  0  0  0  0  0  0  0  0  0
   -3.6367   -1.5489    0.8538 C   0  0  0  0  0  0  0  0  0  0  0  0
   -2.7841   -1.2571    2.0986 C   0  0  0  0  0  0  0  0  0  0  0  0
   -5.1147   -1.3400    1.2226 C   0  0  0  0  0  0  0  0  0  0  0  0
   -3.4493   -2.9794    0.3240 C   0  0  0  0  0  0  0  0  0  0  0  0
   -4.1868    0.0933   -1.0134 C   0  0  0  0  0  0  0  0  0  0  0  0
   -3.5006    0.9096   -1.8678 C   0  0  0  0  0  0  0  0  0  0  0  0
   -0.4930    3.8013   -1.0822 C   0  0  0  0  0  0  0  0  0  0  0  0
    0.0478    4.5045    0.0046 C   0  0  0  0  0  0  0  0  0  0  0  0
    0.5453    2.3904    1.0610 C   0  0  0  0  0  0  0  0  0  0  0  0
    1.1138    1.5045    2.1551 C   0  0  0  0  0  0  0  0  0  0  0  0
    2.1734    0.6503    1.6195 N   0  0  0  0  0  0  0  0  0  0  0  0
    1.9530   -0.2522    0.6054 C   0  0  0  0  0  2  0  0  0  0  0  0
    3.2118   -0.6383    0.2190 N   0  0  0  0  0  0  0  0  0  0  0  0
    3.5958   -1.5619   -0.9123 C   0  0  0  0  0  0  0  0  0  0  0  0
    2.5494   -1.4769   -2.0312 C   0  0  0  0  0  0  0  0  0  0  0  0
    4.9486   -1.1009   -1.4882 C   0  0  0  0  0  0  0  0  0  0  0  0
    3.7382   -2.9900   -0.3606 C   0  0  0  0  0  0  0  0  0  0  0  0
    4.1766   -0.0149    1.0102 C   0  0  0  0  0  0  0  0  0  0  0  0
    3.5249    0.8095    1.8832 C   0  0  0  0  0  0  0  0  0  0  0  0
    0.5748    3.7921    1.0924 C   0  0  0  0  0  0  0  0  0  0  0  0
   -0.2765    0.8512   -2.5268 H   0  0  0  0  0  0  0  0  0  0  0  0
   -1.4678    2.1249   -2.9714 H   0  0  0  0  0  0  0  0  0  0  0  0
   -1.7023   -1.3138    1.8780 H   0  0  0  0  0  0  0  0  0  0  0  0
   -3.0066   -0.2435    2.4891 H   0  0  0  0  0  0  0  0  0  0  0  0
   -3.0238   -1.9928    2.8903 H   0  0  0  0  0  0  0  0  0  0  0  0
   -5.8039   -1.6305    0.4056 H   0  0  0  0  0  0  0  0  0  0  0  0
   -5.3499   -1.9911    2.0857 H   0  0  0  0  0  0  0  0  0  0  0  0
   -5.3251   -0.2947    1.5237 H   0  0  0  0  0  0  0  0  0  0  0  0
   -4.0931   -3.1508   -0.5616 H   0  0  0  0  0  0  0  0  0  0  0  0
   -2.4020   -3.1730    0.0378 H   0  0  0  0  0  0  0  0  0  0  0  0
   -3.7387   -3.7104    1.1041 H   0  0  0  0  0  0  0  0  0  0  0  0
   -5.2625   -0.0541   -0.9096 H   0  0  0  0  0  0  0  0  0  0  0  0
   -3.8539    1.6035   -2.6363 H   0  0  0  0  0  0  0  0  0  0  0  0
   -0.9118    4.3329   -1.9487 H   0  0  0  0  0  0  0  0  0  0  0  0
    0.0596    5.6044    0.0036 H   0  0  0  0  0  0  0  0  0  0  0  0
    1.5307    2.1104    2.9797 H   0  0  0  0  0  0  0  0  0  0  0  0
    0.3049    0.8612    2.5600 H   0  0  0  0  0  0  0  0  0  0  0  0
    2.8515   -2.1530   -2.8540 H   0  0  0  0  0  0  0  0  0  0  0  0
    1.5426   -1.7700   -1.6877 H   0  0  0  0  0  0  0  0  0  0  0  0
    2.4936   -0.4460   -2.4349 H   0  0  0  0  0  0  0  0  0  0  0  0
    5.1599   -1.6908   -2.4001 H   0  0  0  0  0  0  0  0  0  0  0  0
    4.9277   -0.0302   -1.7720 H   0  0  0  0  0  0  0  0  0  0  0  0
    5.7945   -1.2737   -0.7952 H   0  0  0  0  0  0  0  0  0  0  0  0
    4.0766   -3.6713   -1.1653 H   0  0  0  0  0  0  0  0  0  0  0  0
    4.4878   -3.0245    0.4549 H   0  0  0  0  0  0  0  0  0  0  0  0
    2.7792   -3.3745    0.0331 H   0  0  0  0  0  0  0  0  0  0  0  0
    5.2460   -0.1993    0.8961 H   0  0  0  0  0  0  0  0  0  0  0  0
    3.9072    1.4758    2.6622 H   0  0  0  0  0  0  0  0  0  0  0  0
    1.0067    4.3170    1.9565 H   0  0  0  0  0  0  0  0  0  0  0  0
  1 15  1  0  0  0  0
  2  3  1  1  0  0  0
  2  1  1  0  0  0  0
  3  4  1  0  0  0  0
  4  5  1  0  0  0  0
  5  6  1  0  0  0  0
  6  7  1  0  0  0  0
  7  9  1  0  0  0  0
  7  8  1  0  0  0  0
  8 30  1  0  0  0  0
  8 31  1  0  0  0  0
  9 34  1  0  0  0  0
  9 33  1  0  0  0  0
 10  7  1  0  0  0  0
 10 37  1  0  0  0  0
 11 38  1  0  0  0  0
 11  6  1  0  0  0  0
 12  4  1  0  0  0  0
 12 11  2  0  0  0  0
 13  2  1  0  0  0  0
 13 14  2  0  0  0  0
 14 26  1  0  0  0  0
 15 26  2  0  0  0  0
 15 16  1  0  0  0  0
 16 43  1  0  0  0  0
 16 42  1  0  0  0  0
 17 25  1  0  0  0  0
 17 16  1  0  0  0  0
 18 17  1  0  0  0  0
 19 18  1  0  0  0  0
 19 24  1  0  0  0  0
 20 23  1  0  0  0  0
 20 19  1  0  0  0  0
 21 45  1  0  0  0  0
 21 20  1  0  0  0  0
 22 20  1  0  0  0  0
 22 49  1  0  0  0  0
 23 52  1  0  0  0  0
 23 51  1  0  0  0  0
 24 25  2  0  0  0  0
 25 54  1  0  0  0  0
 26 55  1  0  0  0  0
 27  3  1  0  0  0  0
 28  3  1  0  0  0  0
 29  8  1  0  0  0  0
 32  9  1  0  0  0  0
 35 10  1  0  0  0  0
 36 10  1  0  0  0  0
 39 12  1  0  0  0  0
 40 13  1  0  0  0  0
 41 14  1  0  0  0  0
 44 21  1  0  0  0  0
 46 21  1  0  0  0  0
 47 22  1  0  0  0  0
 48 22  1  0  0  0  0
 50 23  1  0  0  0  0
 53 24  1  0  0  0  0
M  END
