3,4,7
 OpenBabel05122313063D

 56 59  0  0  1  0  0  0  0  0999 V2000
   -1.1574    0.3051   -0.5635 P   0  0  0  0  0  0  0  0  0  0  0  0
    3.1411    0.0354   -0.0635 N   0  0  0  0  0  0  0  0  0  0  0  0
    1.9435    0.2427    0.5877 N   0  0  0  0  0  2  0  0  0  0  0  0
   -0.1611   -2.2340   -1.6241 C   0  0  1  0  0  3  0  0  0  0  0  0
    1.1924   -1.7890   -1.8097 C   0  0  0  0  0  3  0  0  0  0  0  0
    1.4498   -1.1215   -2.6451 H   0  0  0  0  0  0  0  0  0  0  0  0
    2.1651   -2.0644   -0.7882 C   0  0  2  0  0  3  0  0  0  0  0  0
    1.8710   -2.9759    0.2904 C   0  0  0  0  0  0  0  0  0  0  0  0
    2.6192   -3.1885    1.0663 H   0  0  0  0  0  0  0  0  0  0  0  0
    0.5317   -3.4378    0.4314 C   0  0  0  0  0  0  0  0  0  0  0  0
    0.2526   -3.9950    1.3380 H   0  0  0  0  0  0  0  0  0  0  0  0
   -0.4868   -3.0829   -0.5054 C   0  0  0  0  0  3  0  0  0  0  0  0
   -1.5259   -3.3985   -0.3399 H   0  0  0  0  0  0  0  0  0  0  0  0
   -1.2506   -1.6551   -2.5076 C   0  0  0  0  0  0  0  0  0  0  0  0
   -2.2305   -2.0686   -2.1981 H   0  0  0  0  0  0  0  0  0  0  0  0
   -1.0838   -1.9616   -3.5616 H   0  0  0  0  0  0  0  0  0  0  0  0
   -1.2608   -0.1251   -2.3847 C   0  0  0  0  0  0  0  0  0  0  0  0
   -2.1669    0.3277   -2.8324 H   0  0  0  0  0  0  0  0  0  0  0  0
   -0.3837    0.3345   -2.8825 H   0  0  0  0  0  0  0  0  0  0  0  0
    3.4302   -1.2301   -0.7369 C   0  0  0  0  0  0  0  0  0  0  0  0
    4.2257   -1.7717   -0.1837 H   0  0  0  0  0  0  0  0  0  0  0  0
    3.8102   -1.0230   -1.7581 H   0  0  0  0  0  0  0  0  0  0  0  0
    4.0282    1.0429    0.2019 C   0  0  1  0  0  3  0  0  0  0  0  0
    3.3652    1.9329    1.0419 C   0  0  0  0  0  0  0  0  0  0  0  0
    3.7686    2.8621    1.4566 H   0  0  0  0  0  0  0  0  0  0  0  0
    2.0699    1.4038    1.2706 C   0  0  0  0  0  0  0  0  0  0  0  0
    5.4159    1.0436   -0.3433 C   0  0  0  0  0  0  0  0  0  0  0  0
    6.0066    0.1824    0.0341 H   0  0  0  0  0  0  0  0  0  0  0  0
    5.9401    1.9676   -0.0405 H   0  0  0  0  0  0  0  0  0  0  0  0
    5.4267    0.9928   -1.4519 H   0  0  0  0  0  0  0  0  0  0  0  0
    1.0128    2.0021    2.1335 C   0  0  0  0  0  0  0  0  0  0  0  0
    0.0919    1.3973    2.1336 H   0  0  0  0  0  0  0  0  0  0  0  0
    0.7909    3.0368    1.8070 H   0  0  0  0  0  0  0  0  0  0  0  0
    1.3765    2.0508    3.1799 H   0  0  0  0  0  0  0  0  0  0  0  0
   -2.8917    0.0677   -0.0196 C   0  0  0  0  0  0  0  0  0  0  0  0
   -3.9155    0.7806   -0.6872 C   0  0  0  0  0  0  0  0  0  0  0  0
   -3.6694    1.5168   -1.4684 H   0  0  0  0  0  0  0  0  0  0  0  0
   -5.2572    0.5616   -0.3491 C   0  0  0  0  0  0  0  0  0  0  0  0
   -6.0486    1.1212   -0.8696 H   0  0  0  0  0  0  0  0  0  0  0  0
   -5.5889   -0.3690    0.6506 C   0  0  0  0  0  0  0  0  0  0  0  0
   -6.6437   -0.5388    0.9140 H   0  0  0  0  0  0  0  0  0  0  0  0
   -4.5755   -1.0762    1.3134 C   0  0  0  0  0  0  0  0  0  0  0  0
   -4.8313   -1.7989    2.1025 H   0  0  0  0  0  0  0  0  0  0  0  0
   -3.2273   -0.8629    0.9830 C   0  0  0  0  0  0  0  0  0  0  0  0
   -2.4278   -1.3900    1.5253 H   0  0  0  0  0  0  0  0  0  0  0  0
   -0.8265    2.1013   -0.5379 C   0  0  0  0  0  0  0  0  0  0  0  0
    0.3274    2.5786   -1.1968 C   0  0  0  0  0  0  0  0  0  0  0  0
    0.9930    1.8804   -1.7284 H   0  0  0  0  0  0  0  0  0  0  0  0
    0.6473    3.9419   -1.1573 C   0  0  0  0  0  0  0  0  0  0  0  0
    1.5470    4.3077   -1.6740 H   0  0  0  0  0  0  0  0  0  0  0  0
   -0.1762    4.8372   -0.4537 C   0  0  0  0  0  0  0  0  0  0  0  0
    0.0755    5.9077   -0.4229 H   0  0  0  0  0  0  0  0  0  0  0  0
   -1.3185    4.3645    0.2120 C   0  0  0  0  0  0  0  0  0  0  0  0
   -1.9618    5.0624    0.7683 H   0  0  0  0  0  0  0  0  0  0  0  0
   -1.6440    3.0005    0.1769 C   0  0  0  0  0  0  0  0  0  0  0  0
   -2.5317    2.6346    0.7127 H   0  0  0  0  0  0  0  0  0  0  0  0
  1 46  1  0  0  0  0
  1 35  1  0  0  0  0
  2 23  1  0  0  0  0
  2  3  1  0  0  0  0
  3 26  1  0  0  0  0
  4 14  1  1  0  0  0
  4 12  1  0  0  0  0
  5  4  1  0  0  0  0
  5  7  1  0  0  0  0
  6  5  1  0  0  0  0
  7 20  1  1  0  0  0
  7  8  1  0  0  0  0
  8 10  2  0  0  0  0
  8  9  1  0  0  0  0
 10 11  1  0  0  0  0
 12 13  1  0  0  0  0
 12 10  1  0  0  0  0
 14 17  1  0  0  0  0
 14 15  1  0  0  0  0
 16 14  1  0  0  0  0
 17  1  1  0  0  0  0
 18 17  1  0  0  0  0
 19 17  1  0  0  0  0
 20 21  1  0  0  0  0
 20  2  1  0  0  0  0
 22 20  1  0  0  0  0
 23 27  1  1  0  0  0
 23 24  1  0  0  0  0
 24 26  2  0  0  0  0
 24 25  1  0  0  0  0
 26 31  1  0  0  0  0
 27 29  1  0  0  0  0
 27 28  1  0  0  0  0
 30 27  1  0  0  0  0
 31 32  1  0  0  0  0
 31 34  1  0  0  0  0
 33 31  1  0  0  0  0
 35 44  1  0  0  0  0
 36 38  1  0  0  0  0
 36 35  2  0  0  0  0
 37 36  1  0  0  0  0
 38 40  2  0  0  0  0
 39 38  1  0  0  0  0
 40 41  1  0  0  0  0
 40 42  1  0  0  0  0
 42 43  1  0  0  0  0
 44 42  2  0  0  0  0
 44 45  1  0  0  0  0
 46 55  1  0  0  0  0
 47 49  1  0  0  0  0
 47 46  2  0  0  0  0
 48 47  1  0  0  0  0
 49 51  2  0  0  0  0
 50 49  1  0  0  0  0
 51 52  1  0  0  0  0
 51 53  1  0  0  0  0
 53 54  1  0  0  0  0
 55 53  2  0  0  0  0
 55 56  1  0  0  0  0
M  END
