7,16,17
 OpenBabel05122313063D

 46 45  0  0  1  0  0  0  0  0999 V2000
    2.8474    1.0947   -1.5546 O   0  0  0  0  0  0  0  0  0  0  0  0
   -2.4415   -2.0151   -1.0309 O   0  0  0  0  0  0  0  0  0  0  0  0
   -2.5190   -0.7233    0.8307 O   0  0  0  0  0  0  0  0  0  0  0  0
   -2.6983    2.5037    0.9497 O   0  0  0  0  0  0  0  0  0  0  0  0
   -3.5149    1.4503   -0.8846 O   0  0  0  0  0  0  0  0  0  0  0  0
    1.2258    2.0066   -0.2363 N   0  0  0  0  0  0  0  0  0  0  0  0
    0.4583   -0.2696    1.4645 N   0  0  0  0  0  2  0  0  0  0  0  0
    1.8485    3.3440   -0.2807 C   0  0  0  0  0  0  0  0  0  0  0  0
    1.0018    4.3428   -1.0771 C   0  0  0  0  0  0  0  0  0  0  0  0
    2.1901    3.8442    1.1260 C   0  0  0  0  0  0  0  0  0  0  0  0
   -0.0646    1.8574    0.4147 C   0  0  2  0  0  0  0  0  0  0  0  0
   -0.0001    0.9245    1.5936 C   0  0  0  0  0  3  0  0  0  0  0  0
    0.5671   -1.1488    2.6626 C   0  0  0  0  0  0  0  0  0  0  0  0
   -0.6440   -1.0502    3.5936 C   0  0  0  0  0  0  0  0  0  0  0  0
    1.8955   -0.8673    3.3731 C   0  0  0  0  0  0  0  0  0  0  0  0
    1.8272    0.9420   -0.8825 C   0  0  0  0  0  3  0  0  0  0  0  0
   -1.0763   -0.0801   -1.0042 C   0  0  0  0  0  3  0  0  0  0  0  0
   -2.0657   -0.9310   -0.2940 C   0  0  0  0  0  0  0  0  0  0  0  0
   -3.3419   -2.9189   -0.3874 C   0  0  0  0  0  0  0  0  0  0  0  0
   -1.1569    1.3964   -0.5895 C   0  0  1  0  0  0  0  0  0  0  0  0
   -2.5210    1.8372   -0.0555 C   0  0  0  0  0  0  0  0  0  0  0  0
   -4.8416    1.7259   -0.4202 C   0  0  0  0  0  0  0  0  0  0  0  0
    2.7895    3.1586   -0.8381 H   0  0  0  0  0  0  0  0  0  0  0  0
    1.5293    5.3144   -1.1607 H   0  0  0  0  0  0  0  0  0  0  0  0
    0.8126    3.9681   -2.1024 H   0  0  0  0  0  0  0  0  0  0  0  0
    0.0231    4.5428   -0.5912 H   0  0  0  0  0  0  0  0  0  0  0  0
    2.7470    4.8013    1.0728 H   0  0  0  0  0  0  0  0  0  0  0  0
    1.2786    4.0301    1.7335 H   0  0  0  0  0  0  0  0  0  0  0  0
    2.8210    3.1078    1.6625 H   0  0  0  0  0  0  0  0  0  0  0  0
   -0.3763    2.8453    0.7959 H   0  0  0  0  0  0  0  0  0  0  0  0
   -0.3790    1.2815    2.5681 H   0  0  0  0  0  0  0  0  0  0  0  0
    0.6027   -2.1784    2.2568 H   0  0  0  0  0  0  0  0  0  0  0  0
   -0.5996   -1.8716    4.3355 H   0  0  0  0  0  0  0  0  0  0  0  0
   -0.6616   -0.0992    4.1639 H   0  0  0  0  0  0  0  0  0  0  0  0
   -1.5835   -1.1341    3.0135 H   0  0  0  0  0  0  0  0  0  0  0  0
    2.0393   -1.5821    4.2072 H   0  0  0  0  0  0  0  0  0  0  0  0
    2.7567   -0.9632    2.6841 H   0  0  0  0  0  0  0  0  0  0  0  0
    1.9010    0.1597    3.7931 H   0  0  0  0  0  0  0  0  0  0  0  0
   -1.2142   -0.1979   -2.0915 H   0  0  0  0  0  0  0  0  0  0  0  0
   -3.6544   -3.6438   -1.1604 H   0  0  0  0  0  0  0  0  0  0  0  0
   -2.8402   -3.4544    0.4452 H   0  0  0  0  0  0  0  0  0  0  0  0
   -4.2202   -2.3809    0.0220 H   0  0  0  0  0  0  0  0  0  0  0  0
   -0.9774    2.0010   -1.5037 H   0  0  0  0  0  0  0  0  0  0  0  0
   -5.5228    1.4090   -1.2297 H   0  0  0  0  0  0  0  0  0  0  0  0
   -5.0453    1.1492    0.5049 H   0  0  0  0  0  0  0  0  0  0  0  0
   -4.9703    2.8044   -0.2005 H   0  0  0  0  0  0  0  0  0  0  0  0
  1 16  2  0  0  0  0
  2 19  1  0  0  0  0
  2 18  1  0  0  0  0
  5 22  1  0  0  0  0
  5 21  1  0  0  0  0
  6 11  1  0  0  0  0
  7 12  1  0  0  0  0
  7 13  1  0  0  0  0
  8  6  1  0  0  0  0
  8 10  1  0  0  0  0
  9 26  1  0  0  0  0
  9  8  1  0  0  0  0
 10 29  1  0  0  0  0
 10 28  1  0  0  0  0
 11 30  1  1  0  0  0
 11 12  1  0  0  0  0
 12 31  1  0  0  0  0
 13 15  1  0  0  0  0
 13 14  1  0  0  0  0
 14 34  1  0  0  0  0
 14 33  1  0  0  0  0
 15 38  1  0  0  0  0
 15 36  1  0  0  0  0
 16  6  1  0  0  0  0
 17 20  1  0  0  0  0
 17 18  1  0  0  0  0
 18  3  2  0  0  0  0
 19 42  1  0  0  0  0
 19 41  1  0  0  0  0
 20 43  1  6  0  0  0
 20 21  1  0  0  0  0
 20 11  1  0  0  0  0
 21  4  2  0  0  0  0
 22 46  1  0  0  0  0
 22 45  1  0  0  0  0
 23  8  1  0  0  0  0
 24  9  1  0  0  0  0
 25  9  1  0  0  0  0
 27 10  1  0  0  0  0
 32 13  1  0  0  0  0
 35 14  1  0  0  0  0
 37 15  1  0  0  0  0
 39 17  1  0  0  0  0
 40 19  1  0  0  0  0
 44 22  1  0  0  0  0
M  END
