1,2,5
q = -1.0, confidence = 0.022

 36 36  0  0  1  0  0  0  0  0999 V2000
    1.0629    0.2613   -0.6512 N   0  0  0  0  0  2  0  0  0  0  0  0
    0.3419   -1.8946    1.5374 C   0  0  0  0  0  3  0  0  0  0  0  0
   -0.2935   -1.1094    2.5758 C   0  0  0  0  0  0  0  0  0  0  0  0
   -0.1750    0.2977    2.7125 C   0  0  0  0  0  0  0  0  0  0  0  0
    0.5934    1.2199    1.9153 C   0  0  2  0  0  3  0  0  0  0  0  0
    2.0255    0.8626    1.5053 C   0  0  0  0  0  0  0  0  0  0  0  0
    2.2308    0.8840   -0.0227 C   0  0  1  0  0  0  0  0  0  0  0  0
    3.6956   -1.1571   -0.4620 C   0  0  0  0  0  0  0  0  0  0  0  0
    4.9387   -1.7506   -0.7225 C   0  0  0  0  0  0  0  0  0  0  0  0
    6.0798   -0.9504   -0.8997 C   0  0  0  0  0  0  0  0  0  0  0  0
    5.9649    0.4462   -0.8217 C   0  0  0  0  0  0  0  0  0  0  0  0
    4.7164    1.0361   -0.5678 C   0  0  0  0  0  0  0  0  0  0  0  0
    3.5689    0.2447   -0.3786 C   0  0  0  0  0  0  0  0  0  0  0  0
    1.1977    0.1975   -2.0921 C   0  0  0  0  0  0  0  0  0  0  0  0
   -1.2957   -1.8083    3.4701 C   0  0  0  0  0  0  0  0  0  0  0  0
    0.3883    2.6963    2.1772 C   0  0  0  0  0  0  0  0  0  0  0  0
    1.4081   -1.7596    1.3044 H   0  0  0  0  0  0  0  0  0  0  0  0
    0.0385   -2.9520    1.4882 H   0  0  0  0  0  0  0  0  0  0  0  0
   -0.9359    0.7535    3.3712 H   0  0  0  0  0  0  0  0  0  0  0  0
    2.3115   -0.1339    1.8934 H   0  0  0  0  0  0  0  0  0  0  0  0
    2.7385    1.5748    1.9773 H   0  0  0  0  0  0  0  0  0  0  0  0
    2.2831    1.9528   -0.3600 H   0  0  0  0  0  0  0  0  0  0  0  0
    2.7952   -1.7792   -0.3371 H   0  0  0  0  0  0  0  0  0  0  0  0
    5.0186   -2.8467   -0.7902 H   0  0  0  0  0  0  0  0  0  0  0  0
    7.0563   -1.4153   -1.1043 H   0  0  0  0  0  0  0  0  0  0  0  0
    6.8525    1.0817   -0.9651 H   0  0  0  0  0  0  0  0  0  0  0  0
    4.6261    2.1335   -0.5160 H   0  0  0  0  0  0  0  0  0  0  0  0
    2.0351   -0.4675   -2.4058 H   0  0  0  0  0  0  0  0  0  0  0  0
    0.2780   -0.1915   -2.5634 H   0  0  0  0  0  0  0  0  0  0  0  0
    1.4144    1.2024   -2.5308 H   0  0  0  0  0  0  0  0  0  0  0  0
   -0.7666   -2.2575    4.3383 H   0  0  0  0  0  0  0  0  0  0  0  0
   -2.0645   -1.1162    3.8693 H   0  0  0  0  0  0  0  0  0  0  0  0
   -1.8061   -2.6409    2.9460 H   0  0  0  0  0  0  0  0  0  0  0  0
    1.0696    3.0587    2.9826 H   0  0  0  0  0  0  0  0  0  0  0  0
    0.6020    3.3126    1.2800 H   0  0  0  0  0  0  0  0  0  0  0  0
   -0.6487    2.9193    2.4960 H   0  0  0  0  0  0  0  0  0  0  0  0
  1  7  1  0  0  0  0
  2  3  1  0  0  0  0
  3  4  2  0  0  0  0
  3 15  1  0  0  0  0
  4 19  1  0  0  0  0
  5 16  1  0  0  0  0
  5  4  1  1  0  0  0
  6 20  1  0  0  0  0
  6  5  1  0  0  0  0
  6 21  1  0  0  0  0
  7 22  1  6  0  0  0
  7  6  1  0  0  0  0
  8 13  1  0  0  0  0
  8 23  1  0  0  0  0
  9  8  2  0  0  0  0
 10 11  2  0  0  0  0
 10  9  1  0  0  0  0
 11 12  1  0  0  0  0
 12 27  1  0  0  0  0
 12 13  2  0  0  0  0
 13  7  1  0  0  0  0
 14  1  1  0  0  0  0
 15 32  1  0  0  0  0
 15 31  1  0  0  0  0
 16 36  1  0  0  0  0
 16 34  1  0  0  0  0
 17  2  1  0  0  0  0
 18  2  1  0  0  0  0
 24  9  1  0  0  0  0
 25 10  1  0  0  0  0
 26 11  1  0  0  0  0
 28 14  1  0  0  0  0
 29 14  1  0  0  0  0
 30 14  1  0  0  0  0
 33 15  1  0  0  0  0
 35 16  1  0  0  0  0
M  END
