1,2,5
q = -1.0, confidence = 0.062

 67 71  0  0  1  0  0  0  0  0999 V2000
   -1.7892   -2.5602   -0.4217 N   0  0  0  0  0  0  0  0  0  0  0  0
    1.5422   -0.0360   -0.3009 C   0  0  0  0  0  3  0  0  0  0  0  0
    0.9052    1.1628   -0.2062 C   0  0  0  0  0  0  0  0  0  0  0  0
   -0.5751    0.8467   -0.1518 C   0  0  1  0  0  3  0  0  0  0  0  0
   -1.0751    0.0733    0.9536 C   0  0  1  0  0  3  0  0  0  0  0  0
   -3.0989   -1.9352   -0.6750 C   0  0  2  0  0  0  0  0  0  0  0  0
   -3.1352   -1.3566   -2.0928 C   0  0  0  0  0  0  0  0  0  0  0  0
    2.9611   -0.3829   -0.2431 C   0  0  0  0  0  0  0  0  0  0  0  0
    3.6740   -0.8658   -1.3647 C   0  0  0  0  0  0  0  0  0  0  0  0
    5.0433   -1.1436   -1.2651 C   0  0  0  0  0  0  0  0  0  0  0  0
    5.7191   -0.9659   -0.0461 C   0  0  0  0  0  0  0  0  0  0  0  0
    5.0144   -0.5057    1.0783 C   0  0  0  0  0  0  0  0  0  0  0  0
    3.6473   -0.2148    0.9847 C   0  0  0  0  0  0  0  0  0  0  0  0
    1.4198    2.5413   -0.2023 C   0  0  0  0  0  0  0  0  0  0  0  0
    2.7512    2.8423   -0.5817 C   0  0  0  0  0  0  0  0  0  0  0  0
    3.2208    4.1604   -0.5559 C   0  0  0  0  0  0  0  0  0  0  0  0
    2.3779    5.2128   -0.1579 C   0  0  0  0  0  0  0  0  0  0  0  0
    1.0534    4.9318    0.2114 C   0  0  0  0  0  0  0  0  0  0  0  0
    0.5798    3.6131    0.1880 C   0  0  0  0  0  0  0  0  0  0  0  0
   -1.4145    1.4665   -1.2190 C   0  0  0  0  0  0  0  0  0  0  0  0
   -0.8905    1.5220   -2.5329 C   0  0  0  0  0  0  0  0  0  0  0  0
   -1.6213    2.1018   -3.5755 C   0  0  0  0  0  0  0  0  0  0  0  0
   -2.8865    2.6600   -3.3254 C   0  0  0  0  0  0  0  0  0  0  0  0
   -3.4033    2.6410   -2.0211 C   0  0  0  0  0  0  0  0  0  0  0  0
   -2.6779    2.0504   -0.9762 C   0  0  0  0  0  0  0  0  0  0  0  0
   -0.2965   -0.0684    2.2373 C   0  0  0  0  0  0  0  0  0  0  0  0
    0.4436    0.9991    2.7896 C   0  0  0  0  0  0  0  0  0  0  0  0
    1.1250    0.8447    4.0061 C   0  0  0  0  0  0  0  0  0  0  0  0
    1.0753   -0.3744    4.6998 C   0  0  0  0  0  0  0  0  0  0  0  0
    0.3203   -1.4357    4.1742 C   0  0  0  0  0  0  0  0  0  0  0  0
   -0.3643   -1.2785    2.9630 C   0  0  0  0  0  0  0  0  0  0  0  0
   -2.5658   -0.1174    1.1561 C   0  0  0  0  0  0  0  0  0  0  0  0
   -3.0995    0.6877    2.1962 C   0  0  0  0  0  0  0  0  0  0  0  0
   -4.4673    0.7544    2.4699 C   0  0  0  0  0  0  0  0  0  0  0  0
   -5.3567   -0.0236    1.7137 C   0  0  0  0  0  0  0  0  0  0  0  0
   -4.8443   -0.8663    0.7244 C   0  0  0  0  0  0  0  0  0  0  0  0
   -3.4651   -0.9407    0.4237 C   0  0  0  0  0  0  0  0  0  0  0  0
   -1.8024   -3.0869    0.4628 H   0  0  0  0  0  0  0  0  0  0  0  0
   -1.5315   -3.2384   -1.1578 H   0  0  0  0  0  0  0  0  0  0  0  0
   -3.8840   -2.7248   -0.6284 H   0  0  0  0  0  0  0  0  0  0  0  0
   -2.9956   -2.1645   -2.8399 H   0  0  0  0  0  0  0  0  0  0  0  0
   -4.1102   -0.8698   -2.2838 H   0  0  0  0  0  0  0  0  0  0  0  0
   -2.3401   -0.6040   -2.2420 H   0  0  0  0  0  0  0  0  0  0  0  0
    3.1384   -1.0229   -2.3111 H   0  0  0  0  0  0  0  0  0  0  0  0
    5.5880   -1.5117   -2.1480 H   0  0  0  0  0  0  0  0  0  0  0  0
    6.7936   -1.1929    0.0287 H   0  0  0  0  0  0  0  0  0  0  0  0
    5.5343   -0.3716    2.0395 H   0  0  0  0  0  0  0  0  0  0  0  0
    3.0889    0.1461    1.8614 H   0  0  0  0  0  0  0  0  0  0  0  0
    3.4167    2.0300   -0.9042 H   0  0  0  0  0  0  0  0  0  0  0  0
    4.2591    4.3704   -0.8552 H   0  0  0  0  0  0  0  0  0  0  0  0
    2.7515    6.2478   -0.1411 H   0  0  0  0  0  0  0  0  0  0  0  0
    0.3803    5.7468    0.5191 H   0  0  0  0  0  0  0  0  0  0  0  0
   -0.4630    3.4078    0.4736 H   0  0  0  0  0  0  0  0  0  0  0  0
    0.0968    1.0766   -2.7262 H   0  0  0  0  0  0  0  0  0  0  0  0
   -1.2002    2.1189   -4.5921 H   0  0  0  0  0  0  0  0  0  0  0  0
   -3.4628    3.1172   -4.1439 H   0  0  0  0  0  0  0  0  0  0  0  0
   -4.3841    3.0935   -1.8091 H   0  0  0  0  0  0  0  0  0  0  0  0
   -3.0957    2.0570    0.0382 H   0  0  0  0  0  0  0  0  0  0  0  0
    0.4888    1.9624    2.2640 H   0  0  0  0  0  0  0  0  0  0  0  0
    1.6976    1.6913    4.4148 H   0  0  0  0  0  0  0  0  0  0  0  0
    1.6161   -0.4956    5.6505 H   0  0  0  0  0  0  0  0  0  0  0  0
    0.2664   -2.3952    4.7101 H   0  0  0  0  0  0  0  0  0  0  0  0
   -0.9558   -2.1141    2.5595 H   0  0  0  0  0  0  0  0  0  0  0  0
   -2.4010    1.2978    2.7879 H   0  0  0  0  0  0  0  0  0  0  0  0
   -4.8353    1.4082    3.2748 H   0  0  0  0  0  0  0  0  0  0  0  0
   -6.4387    0.0049    1.9108 H   0  0  0  0  0  0  0  0  0  0  0  0
   -5.5351   -1.5114    0.1576 H   0  0  0  0  0  0  0  0  0  0  0  0
  1 38  1  0  0  0  0
  2  8  1  0  0  0  0
  2  3  2  0  0  0  0
  3 14  1  0  0  0  0
  4  3  1  1  0  0  0
  5  4  1  1  0  0  0
  5 32  1  0  0  0  0
  5 26  1  0  0  0  0
  6 40  1  1  0  0  0
  6  1  1  0  0  0  0
  6 37  1  0  0  0  0
  7  6  1  0  0  0  0
  8 13  1  0  0  0  0
  9 10  1  0  0  0  0
  9  8  2  0  0  0  0
 10 11  2  0  0  0  0
 11 46  1  0  0  0  0
 11 12  1  0  0  0  0
 12 47  1  0  0  0  0
 13 12  2  0  0  0  0
 13 48  1  0  0  0  0
 14 19  1  0  0  0  0
 15 16  1  0  0  0  0
 15 14  2  0  0  0  0
 16 17  2  0  0  0  0
 17 51  1  0  0  0  0
 17 18  1  0  0  0  0
 18 52  1  0  0  0  0
 19 18  2  0  0  0  0
 19 53  1  0  0  0  0
 20 25  1  0  0  0  0
 20  4  1  0  0  0  0
 21 20  2  0  0  0  0
 22 23  2  0  0  0  0
 22 21  1  0  0  0  0
 23 24  1  0  0  0  0
 24 57  1  0  0  0  0
 24 25  2  0  0  0  0
 25 58  1  0  0  0  0
 26 27  2  0  0  0  0
 26 31  1  0  0  0  0
 27 28  1  0  0  0  0
 28 60  1  0  0  0  0
 28 29  2  0  0  0  0
 29 61  1  0  0  0  0
 30 29  1  0  0  0  0
 30 62  1  0  0  0  0
 31 30  2  0  0  0  0
 32 33  1  0  0  0  0
 33 34  2  0  0  0  0
 33 64  1  0  0  0  0
 34 65  1  0  0  0  0
 35 66  1  0  0  0  0
 35 34  1  0  0  0  0
 36 35  2  0  0  0  0
 37 36  1  0  0  0  0
 37 32  2  0  0  0  0
 39  1  1  0  0  0  0
 41  7  1  0  0  0  0
 42  7  1  0  0  0  0
 43  7  1  0  0  0  0
 44  9  1  0  0  0  0
 45 10  1  0  0  0  0
 49 15  1  0  0  0  0
 50 16  1  0  0  0  0
 54 21  1  0  0  0  0
 55 22  1  0  0  0  0
 56 23  1  0  0  0  0
 59 27  1  0  0  0  0
 63 31  1  0  0  0  0
 67 36  1  0  0  0  0
M  END
