1,16,26,36,39
q = -1.0

 51 54  0  0  1  0  0  0  0  0999 V2000
    0.7399    0.0154    1.2463 N   0  0  0  0  0  2  0  0  0  0  0  0
    1.1280    0.0314    2.5348 C   0  0  0  0  0  0  0  0  0  0  0  0
    0.3360    0.0414    3.2970 H   0  0  0  0  0  0  0  0  0  0  0  0
    2.4866    0.0338    2.9046 C   0  0  0  0  0  0  0  0  0  0  0  0
    2.7454    0.0437    3.9728 H   0  0  0  0  0  0  0  0  0  0  0  0
    3.4825    0.0263    1.9364 C   0  0  0  0  0  0  0  0  0  0  0  0
    4.5446    0.0355    2.2036 H   0  0  0  0  0  0  0  0  0  0  0  0
    3.9981   -0.0130   -0.5756 C   0  0  1  0  0  3  0  0  0  0  0  0
    3.4970   -0.0484   -1.8767 C   0  0  0  0  0  0  0  0  0  0  0  0
    4.2287   -0.0782   -2.6957 H   0  0  0  0  0  0  0  0  0  0  0  0
    2.1193   -0.0455   -2.1528 C   0  0  0  0  0  0  0  0  0  0  0  0
    1.7437   -0.0634   -3.1820 H   0  0  0  0  0  0  0  0  0  0  0  0
    1.2053   -0.0202   -1.0853 C   0  0  0  0  0  0  0  0  0  0  0  0
    3.1160    0.0111    0.5564 C   0  0  0  0  0  0  0  0  0  0  0  0
    1.7110    0.0029    0.2588 C   0  0  0  0  0  0  0  0  0  0  0  0
   -1.2765    2.0001    0.3088 N   0  0  0  0  0  2  0  0  0  0  0  0
   -2.5012    2.3723   -0.1525 C   0  0  2  0  0  3  0  0  0  0  0  0
   -2.7819    3.7010   -0.4900 C   0  0  0  0  0  0  0  0  0  0  0  0
   -3.7769    3.9715   -0.8718 H   0  0  0  0  0  0  0  0  0  0  0  0
   -1.7776    4.6691   -0.3359 C   0  0  0  0  0  0  0  0  0  0  0  0
   -1.9746    5.7200   -0.5940 H   0  0  0  0  0  0  0  0  0  0  0  0
   -0.5206    4.2737    0.1407 C   0  0  0  0  0  0  0  0  0  0  0  0
    0.2960    4.9974    0.2715 H   0  0  0  0  0  0  0  0  0  0  0  0
   -0.3065    2.9251    0.4480 C   0  0  0  0  0  0  0  0  0  0  0  0
    0.6648    2.5653    0.8167 H   0  0  0  0  0  0  0  0  0  0  0  0
   -1.2805   -1.9889    0.3561 N   0  0  0  0  0  2  0  0  0  0  0  0
   -2.5047   -2.3691   -0.0997 C   0  0  1  0  0  3  0  0  0  0  0  0
   -2.7870   -3.7045   -0.4084 C   0  0  0  0  0  0  0  0  0  0  0  0
   -3.7815   -3.9817   -0.7866 H   0  0  0  0  0  0  0  0  0  0  0  0
   -1.7847   -4.6706   -0.2306 C   0  0  0  0  0  0  0  0  0  0  0  0
   -1.9829   -5.7265   -0.4661 H   0  0  0  0  0  0  0  0  0  0  0  0
   -0.5282   -4.2669    0.2404 C   0  0  0  0  0  0  0  0  0  0  0  0
    0.2868   -4.9890    0.3890 H   0  0  0  0  0  0  0  0  0  0  0  0
   -0.3124   -2.9122    0.5183 C   0  0  0  0  0  0  0  0  0  0  0  0
    0.6585   -2.5459    0.8813 H   0  0  0  0  0  0  0  0  0  0  0  0
   -0.1730   -0.0157   -1.1459 N   0  0  0  0  0  2  0  0  0  0  0  0
   -0.8970   -0.0359   -2.3122 C   0  0  0  0  0  0  0  0  0  0  0  0
   -0.4724   -0.0611   -3.4621 O   0  0  0  0  0  0  0  0  0  0  0  0
   -2.7968   -0.0033   -0.6038 N   0  0  0  0  0  0  0  0  0  0  0  0
   -3.5071    1.2493   -0.2363 C   0  0  0  0  0  0  0  0  0  0  0  0
   -3.9678    1.0995    0.7632 H   0  0  0  0  0  0  0  0  0  0  0  0
   -4.3253    1.4880   -0.9496 H   0  0  0  0  0  0  0  0  0  0  0  0
   -3.5088   -1.2467   -0.2097 C   0  0  0  0  0  0  0  0  0  0  0  0
   -4.3263   -1.5000   -0.9187 H   0  0  0  0  0  0  0  0  0  0  0  0
   -3.9705   -1.0744    0.7857 H   0  0  0  0  0  0  0  0  0  0  0  0
   -2.4100   -0.0189   -2.0528 C   0  0  0  0  0  0  0  0  0  0  0  0
   -2.8297    0.8691   -2.5666 H   0  0  0  0  0  0  0  0  0  0  0  0
   -2.8500   -0.9040   -2.5545 H   0  0  0  0  0  0  0  0  0  0  0  0
    5.4736   -0.0025   -0.4399 N   0  0  0  0  0  0  0  0  0  0  0  0
    6.1318   -0.2402   -1.4498 O   0  0  0  0  0  0  0  0  0  0  0  0
    5.9565    0.2553    0.6665 O   0  0  0  0  0  0  0  0  0  0  0  0
  1  2  1  0  0  0  0
  2  4  2  0  0  0  0
  2  3  1  0  0  0  0
  4  5  1  0  0  0  0
  6  7  1  0  0  0  0
  6  4  1  0  0  0  0
  8 49  1  1  0  0  0
  8 14  1  0  0  0  0
  9  8  1  0  0  0  0
 10  9  1  0  0  0  0
 11  9  2  0  0  0  0
 11 13  1  0  0  0  0
 12 11  1  0  0  0  0
 13 15  2  0  0  0  0
 14  6  2  0  0  0  0
 15 14  1  0  0  0  0
 15  1  1  0  0  0  0
 16 24  1  0  0  0  0
 17 40  1  1  0  0  0
 17 16  1  0  0  0  0
 18 20  2  0  0  0  0
 18 17  1  0  0  0  0
 19 18  1  0  0  0  0
 20 22  1  0  0  0  0
 21 20  1  0  0  0  0
 22 23  1  0  0  0  0
 22 24  2  0  0  0  0
 24 25  1  0  0  0  0
 26 34  1  0  0  0  0
 27 43  1  1  0  0  0
 27 26  1  0  0  0  0
 28 30  2  0  0  0  0
 28 27  1  0  0  0  0
 29 28  1  0  0  0  0
 30 32  1  0  0  0  0
 31 30  1  0  0  0  0
 32 33  1  0  0  0  0
 32 34  2  0  0  0  0
 34 35  1  0  0  0  0
 36 13  1  0  0  0  0
 37 46  1  0  0  0  0
 37 36  1  0  0  0  0
 38 37  2  0  0  0  0
 39 40  1  0  0  0  0
 39 43  1  0  0  0  0
 40 41  1  0  0  0  0
 42 40  1  0  0  0  0
 43 45  1  0  0  0  0
 44 43  1  0  0  0  0
 46 39  1  0  0  0  0
 47 46  1  0  0  0  0
 48 46  1  0  0  0  0
 49 51  2  0  0  0  0
 50 49  2  0  0  0  0
M  END
