5,6,7,9,10
q = -1.0

 63 66  0  0  1  0  0  0  0  0999 V2000
    2.4694    0.0463    0.0159 B   0  0  1  0  0  0  0  0  0  0  0  0
    2.1542   -1.2439    0.7678 O   0  0  0  0  0  0  0  0  0  0  0  0
    1.8417    0.0250   -1.3282 O   0  0  0  0  0  0  0  0  0  0  0  0
    1.8717    1.1787    0.8391 O   0  0  0  0  0  0  0  0  0  0  0  0
    0.8768   -1.5738    0.7144 N   0  0  0  0  0  2  0  0  0  0  0  0
   -1.5658   -1.8610    0.2708 N   0  0  0  0  0  2  0  0  0  0  0  0
    0.5077    0.2513   -1.3650 N   0  0  0  0  0  2  0  0  0  0  0  0
   -2.1070    0.9442   -1.4234 N   0  0  0  0  0  0  0  0  0  0  0  0
    0.5830    1.1262    1.1297 N   0  0  0  0  0  2  0  0  0  0  0  0
   -1.8413    0.7569    1.6223 N   0  0  0  0  0  2  0  0  0  0  0  0
    1.5222   -3.9646    0.9028 C   0  0  0  0  0  0  0  0  0  0  0  0
    2.5461   -3.5610    0.9858 H   0  0  0  0  0  0  0  0  0  0  0  0
    1.4799   -4.6520    0.0330 H   0  0  0  0  0  0  0  0  0  0  0  0
    1.3002   -4.5631    1.8107 H   0  0  0  0  0  0  0  0  0  0  0  0
    0.5416   -2.8512    0.7505 C   0  0  0  0  0  0  0  0  0  0  0  0
   -0.8790   -3.0299    0.5036 C   0  0  0  0  0  0  0  0  0  0  0  0
   -1.5172   -4.2792    0.3899 C   0  0  0  0  0  0  0  0  0  0  0  0
   -0.9526   -5.1964    0.6060 H   0  0  0  0  0  0  0  0  0  0  0  0
   -2.8544   -4.3326   -0.0161 C   0  0  0  0  0  0  0  0  0  0  0  0
   -3.3677   -5.3006   -0.1115 H   0  0  0  0  0  0  0  0  0  0  0  0
   -3.5195   -3.1349   -0.3252 C   0  0  0  0  0  0  0  0  0  0  0  0
   -4.5559   -3.1301   -0.6901 H   0  0  0  0  0  0  0  0  0  0  0  0
   -2.8389   -1.9227   -0.1691 C   0  0  0  0  0  0  0  0  0  0  0  0
   -3.3060   -0.9629   -0.4233 H   0  0  0  0  0  0  0  0  0  0  0  0
    0.7994    0.3192   -3.8093 C   0  0  0  0  0  0  0  0  0  0  0  0
    1.7759   -0.1481   -3.5963 H   0  0  0  0  0  0  0  0  0  0  0  0
    0.9859    1.3218   -4.2489 H   0  0  0  0  0  0  0  0  0  0  0  0
    0.2666   -0.2810   -4.5729 H   0  0  0  0  0  0  0  0  0  0  0  0
   -0.0090    0.4278   -2.5497 C   0  0  2  0  0  3  0  0  0  0  0  0
   -1.4307    0.8552   -2.5925 C   0  0  0  0  0  0  0  0  0  0  0  0
   -2.0296    1.2284   -3.8181 C   0  0  0  0  0  0  0  0  0  0  0  0
   -1.4729    1.1483   -4.7611 H   0  0  0  0  0  0  0  0  0  0  0  0
   -3.3399    1.7231   -3.8181 C   0  0  0  0  0  0  0  0  0  0  0  0
   -3.8187    2.0213   -4.7628 H   0  0  0  0  0  0  0  0  0  0  0  0
   -4.0216    1.8419   -2.5999 C   0  0  0  0  0  0  0  0  0  0  0  0
   -5.0458    2.2383   -2.5484 H   0  0  0  0  0  0  0  0  0  0  0  0
   -3.3521    1.4329   -1.4340 C   0  0  0  0  0  0  0  0  0  0  0  0
   -3.8565    1.5047   -0.4522 H   0  0  0  0  0  0  0  0  0  0  0  0
    0.8352    3.4390    1.8982 C   0  0  0  0  0  0  0  0  0  0  0  0
    1.3753    3.7213    0.9720 H   0  0  0  0  0  0  0  0  0  0  0  0
    1.6157    3.2515    2.6649 H   0  0  0  0  0  0  0  0  0  0  0  0
    0.2082    4.2859    2.2256 H   0  0  0  0  0  0  0  0  0  0  0  0
    0.0327    2.2062    1.6576 C   0  0  0  0  0  0  0  0  0  0  0  0
   -1.3610    1.9923    1.9953 C   0  0  0  0  0  0  0  0  0  0  0  0
   -2.1713    2.9099    2.6912 C   0  0  0  0  0  0  0  0  0  0  0  0
   -1.7654    3.8930    2.9647 H   0  0  0  0  0  0  0  0  0  0  0  0
   -3.4740    2.5494    3.0449 C   0  0  0  0  0  0  0  0  0  0  0  0
   -4.1174    3.2529    3.5927 H   0  0  0  0  0  0  0  0  0  0  0  0
   -3.9344    1.2652    2.7083 C   0  0  0  0  0  0  0  0  0  0  0  0
   -4.9385    0.9212    2.9925 H   0  0  0  0  0  0  0  0  0  0  0  0
   -3.0875    0.4063    2.0017 C   0  0  0  0  0  0  0  0  0  0  0  0
   -3.4191   -0.6064    1.7360 H   0  0  0  0  0  0  0  0  0  0  0  0
    4.0400    0.2238   -0.0733 C   0  0  0  0  0  0  0  0  0  0  0  0
    4.8683   -0.1571    1.0062 C   0  0  0  0  0  0  0  0  0  0  0  0
    4.4168   -0.6062    1.9054 H   0  0  0  0  0  0  0  0  0  0  0  0
    6.2583    0.0216    0.9512 C   0  0  0  0  0  0  0  0  0  0  0  0
    6.8876   -0.2820    1.8019 H   0  0  0  0  0  0  0  0  0  0  0  0
    6.8475    0.5867   -0.1917 C   0  0  0  0  0  0  0  0  0  0  0  0
    7.9383    0.7266   -0.2384 H   0  0  0  0  0  0  0  0  0  0  0  0
    6.0412    0.9710   -1.2750 C   0  0  0  0  0  0  0  0  0  0  0  0
    6.5001    1.4133   -2.1725 H   0  0  0  0  0  0  0  0  0  0  0  0
    4.6511    0.7902   -1.2129 C   0  0  0  0  0  0  0  0  0  0  0  0
    4.0244    1.0923   -2.0665 H   0  0  0  0  0  0  0  0  0  0  0  0
  1  3  1  6  0  0  0
  1  2  1  0  0  0  0
  1  4  1  0  0  0  0
  4  9  1  0  0  0  0
  5 15  1  0  0  0  0
  5  2  1  0  0  0  0
  6 16  1  0  0  0  0
  7  3  1  0  0  0  0
  9 43  1  0  0  0  0
 10 44  1  0  0  0  0
 10 51  1  0  0  0  0
 11 12  1  0  0  0  0
 11 14  1  0  0  0  0
 13 11  1  0  0  0  0
 15 11  1  0  0  0  0
 16 15  2  0  0  0  0
 17 16  1  0  0  0  0
 17 18  1  0  0  0  0
 19 17  2  0  0  0  0
 20 19  1  0  0  0  0
 21 23  2  0  0  0  0
 21 19  1  0  0  0  0
 22 21  1  0  0  0  0
 23  6  1  0  0  0  0
 24 23  1  0  0  0  0
 25 26  1  0  0  0  0
 25 29  1  0  0  0  0
 27 25  1  0  0  0  0
 28 25  1  0  0  0  0
 29  7  1  1  0  0  0
 30 29  1  0  0  0  0
 30  8  2  0  0  0  0
 31 30  1  0  0  0  0
 32 31  1  0  0  0  0
 33 31  2  0  0  0  0
 33 35  1  0  0  0  0
 34 33  1  0  0  0  0
 35 36  1  0  0  0  0
 35 37  2  0  0  0  0
 37  8  1  0  0  0  0
 37 38  1  0  0  0  0
 39 42  1  0  0  0  0
 39 41  1  0  0  0  0
 40 39  1  0  0  0  0
 43 39  1  0  0  0  0
 43 44  2  0  0  0  0
 44 45  1  0  0  0  0
 45 46  1  0  0  0  0
 45 47  2  0  0  0  0
 47 48  1  0  0  0  0
 49 50  1  0  0  0  0
 49 47  1  0  0  0  0
 51 49  2  0  0  0  0
 52 51  1  0  0  0  0
 53  1  1  0  0  0  0
 53 54  1  0  0  0  0
 54 55  1  0  0  0  0
 56 54  2  0  0  0  0
 56 57  1  0  0  0  0
 58 56  1  0  0  0  0
 59 58  1  0  0  0  0
 60 62  1  0  0  0  0
 60 58  2  0  0  0  0
 61 60  1  0  0  0  0
 62 53  2  0  0  0  0
 63 62  1  0  0  0  0
M  END
