1,2,3,5,6
q = 0.0, confidence = 0.976

 52 55  0  0  1  0  0  0  0  0999 V2000
   -0.1299   -0.5884    1.3151 N   0  0  0  0  0  0  0  0  0  0  0  0
    1.4571    1.2287   -0.4613 N   0  0  0  0  0  2  0  0  0  0  0  0
   -1.1893    1.6112    0.4440 N   0  0  0  0  0  2  0  0  0  0  0  0
    1.4417   -1.9582    0.0336 C   0  0  0  0  0  0  0  0  0  0  0  0
   -1.7788   -0.9339   -0.7474 N   0  0  0  0  0  2  0  0  0  0  0  0
    0.9535   -1.2458   -1.1448 N   0  0  0  0  0  0  0  0  0  0  0  0
    0.9524   -1.5632    1.2928 C   0  0  0  0  0  0  0  0  0  0  0  0
   -1.5228    2.5626    2.6433 C   0  0  0  0  0  0  0  0  0  0  0  0
   -1.2914    2.5442    3.7185 H   0  0  0  0  0  0  0  0  0  0  0  0
   -2.1030   -1.6953    0.3367 C   0  0  1  0  0  3  0  0  0  0  0  0
   -1.4452   -1.2547    1.6090 C   0  0  0  0  0  0  0  0  0  0  0  0
   -2.0977   -0.4987    2.0940 H   0  0  0  0  0  0  0  0  0  0  0  0
   -1.3162   -2.0888    2.3279 H   0  0  0  0  0  0  0  0  0  0  0  0
   -3.0332   -2.7367    0.2704 C   0  0  0  0  0  0  0  0  0  0  0  0
   -3.2505   -3.3312    1.1698 H   0  0  0  0  0  0  0  0  0  0  0  0
    2.0385   -0.5927   -1.9238 C   0  0  0  0  0  0  0  0  0  0  0  0
    1.5751   -0.2760   -2.8833 H   0  0  0  0  0  0  0  0  0  0  0  0
    2.8957   -1.2666   -2.1284 H   0  0  0  0  0  0  0  0  0  0  0  0
    1.4520   -2.1584    2.4631 C   0  0  0  0  0  0  0  0  0  0  0  0
    1.0677   -1.8493    3.4467 H   0  0  0  0  0  0  0  0  0  0  0  0
   -2.6914    3.4691    0.7340 C   0  0  0  0  0  0  0  0  0  0  0  0
   -3.3880    4.1837    0.2728 H   0  0  0  0  0  0  0  0  0  0  0  0
    2.4562    0.6454   -1.1899 C   0  0  1  0  0  3  0  0  0  0  0  0
    0.0594    0.5740    2.2305 C   0  0  0  0  0  0  0  0  0  0  0  0
    1.1070    0.9182    2.1180 H   0  0  0  0  0  0  0  0  0  0  0  0
   -0.0935    0.3055    3.2988 H   0  0  0  0  0  0  0  0  0  0  0  0
    2.9047   -3.5691    1.1188 C   0  0  0  0  0  0  0  0  0  0  0  0
    3.6642   -4.3611    1.0474 H   0  0  0  0  0  0  0  0  0  0  0  0
    1.7069    2.4442    0.0884 C   0  0  0  0  0  0  0  0  0  0  0  0
    0.8747    2.9249    0.6199 H   0  0  0  0  0  0  0  0  0  0  0  0
   -2.0673    2.5086   -0.0690 C   0  0  0  0  0  3  0  0  0  0  0  0
   -2.2165    2.4396   -1.1580 H   0  0  0  0  0  0  0  0  0  0  0  0
    2.4364   -3.1523    2.3756 C   0  0  0  0  0  0  0  0  0  0  0  0
    2.8330   -3.6109    3.2931 H   0  0  0  0  0  0  0  0  0  0  0  0
    3.7262    1.2168   -1.3112 C   0  0  0  0  0  0  0  0  0  0  0  0
    4.4986    0.6941   -1.8937 H   0  0  0  0  0  0  0  0  0  0  0  0
   -2.4184    3.5059    2.1095 C   0  0  0  0  0  0  0  0  0  0  0  0
   -2.8988    4.2499    2.7611 H   0  0  0  0  0  0  0  0  0  0  0  0
    2.4117   -2.9709   -0.0489 C   0  0  0  0  0  0  0  0  0  0  0  0
    2.7880   -3.2903   -1.0324 H   0  0  0  0  0  0  0  0  0  0  0  0
    2.9446    3.0836   -0.0129 C   0  0  0  0  0  0  0  0  0  0  0  0
    3.0800    4.0693    0.4542 H   0  0  0  0  0  0  0  0  0  0  0  0
   -3.3638   -2.1994   -2.0544 C   0  0  0  0  0  0  0  0  0  0  0  0
   -3.8469   -2.3566   -3.0293 H   0  0  0  0  0  0  0  0  0  0  0  0
   -0.9211    1.6357    1.7894 C   0  0  0  0  0  0  0  0  0  0  0  0
   -2.4068   -1.1873   -1.9243 C   0  0  0  0  0  0  0  0  0  0  0  0
   -2.1025   -0.5302   -2.7562 H   0  0  0  0  0  0  0  0  0  0  0  0
   -3.6817   -2.9977   -0.9468 C   0  0  0  0  0  0  0  0  0  0  0  0
   -4.4194   -3.8094   -1.0253 H   0  0  0  0  0  0  0  0  0  0  0  0
    3.9861    2.4567   -0.7112 C   0  0  0  0  0  0  0  0  0  0  0  0
    4.9750    2.9289   -0.7998 H   0  0  0  0  0  0  0  0  0  0  0  0
    0.4468   -1.8954   -1.7658 H   0  0  0  0  0  0  0  0  0  0  0  0
  1 11  1  0  0  0  0
  1 24  1  0  0  0  0
  2 29  1  0  0  0  0
  3 45  1  0  0  0  0
  4  7  1  0  0  0  0
  5 10  1  0  0  0  0
  6  4  1  0  0  0  0
  7  1  1  0  0  0  0
  7 19  2  0  0  0  0
  8  9  1  0  0  0  0
 10 11  1  1  0  0  0
 11 12  1  0  0  0  0
 11 13  1  0  0  0  0
 14 10  1  0  0  0  0
 14 15  1  0  0  0  0
 16  6  1  0  0  0  0
 17 16  1  0  0  0  0
 18 16  1  0  0  0  0
 19 20  1  0  0  0  0
 21 37  2  0  0  0  0
 22 21  1  0  0  0  0
 23 16  1  6  0  0  0
 23  2  1  0  0  0  0
 24 26  1  0  0  0  0
 25 24  1  0  0  0  0
 27 33  2  0  0  0  0
 28 27  1  0  0  0  0
 29 30  1  0  0  0  0
 31  3  1  0  0  0  0
 31 21  1  0  0  0  0
 32 31  1  0  0  0  0
 33 19  1  0  0  0  0
 33 34  1  0  0  0  0
 35 23  1  0  0  0  0
 35 50  2  0  0  0  0
 36 35  1  0  0  0  0
 37  8  1  0  0  0  0
 37 38  1  0  0  0  0
 39  4  2  0  0  0  0
 39 27  1  0  0  0  0
 40 39  1  0  0  0  0
 41 29  2  0  0  0  0
 41 42  1  0  0  0  0
 43 46  2  0  0  0  0
 43 48  1  0  0  0  0
 44 43  1  0  0  0  0
 45 24  1  0  0  0  0
 45  8  2  0  0  0  0
 46  5  1  0  0  0  0
 47 46  1  0  0  0  0
 48 14  2  0  0  0  0
 49 48  1  0  0  0  0
 50 41  1  0  0  0  0
 51 50  1  0  0  0  0
 52  6  1  0  0  0  0
M  END
