1,2,3,4,5
q = 0.0, confidence = 0.988

 53 57  0  0  1  0  0  0  0  0999 V2000
    2.2719    0.9306    0.2901 N   0  0  0  0  0  2  0  0  0  0  0  0
    0.2866    2.4694   -0.5171 N   0  0  0  0  0  2  0  0  0  0  0  0
    0.6768   -1.2056    1.3028 N   0  0  0  0  0  2  0  0  0  0  0  0
   -1.1964    0.6445    1.6243 N   0  0  0  0  0  2  0  0  0  0  0  0
    1.2372   -0.8920   -1.5592 N   0  0  0  0  0  2  0  0  0  0  0  0
    3.2120    0.0154    0.5711 C   0  0  2  0  0  3  0  0  0  0  0  0
    4.4461    0.4277    1.1136 C   0  0  0  0  0  0  0  0  0  0  0  0
    5.2302   -0.2946    1.3674 H   0  0  0  0  0  0  0  0  0  0  0  0
    4.6713    1.7954    1.3282 C   0  0  0  0  0  0  0  0  0  0  0  0
    5.6246    2.1316    1.7620 H   0  0  0  0  0  0  0  0  0  0  0  0
    3.6956    2.7319    0.9680 C   0  0  0  0  0  0  0  0  0  0  0  0
    3.8781    3.8062    1.1024 H   0  0  0  0  0  0  0  0  0  0  0  0
    2.4870    2.2533    0.4323 C   0  0  0  0  0  0  0  0  0  0  0  0
    1.3883    3.1231   -0.0793 C   0  0  1  0  0  3  0  0  0  0  0  0
    1.4843    4.5232   -0.1747 C   0  0  0  0  0  0  0  0  0  0  0  0
    2.3792    5.0520    0.1799 H   0  0  0  0  0  0  0  0  0  0  0  0
    0.4259    5.2388   -0.7513 C   0  0  0  0  0  0  0  0  0  0  0  0
    0.4841    6.3338   -0.8390 H   0  0  0  0  0  0  0  0  0  0  0  0
   -0.6956    4.5431   -1.2251 C   0  0  0  0  0  0  0  0  0  0  0  0
   -1.5378    5.0672   -1.6983 H   0  0  0  0  0  0  0  0  0  0  0  0
   -0.7261    3.1478   -1.0838 C   0  0  0  0  0  0  0  0  0  0  0  0
   -1.5720    2.5283   -1.4263 H   0  0  0  0  0  0  0  0  0  0  0  0
    1.7589   -1.9855    1.1534 C   0  0  2  0  0  3  0  0  0  0  0  0
    1.8435   -3.2173    1.8292 C   0  0  0  0  0  0  0  0  0  0  0  0
    2.7105   -3.8767    1.7128 H   0  0  0  0  0  0  0  0  0  0  0  0
    0.7867   -3.6042    2.6646 C   0  0  0  0  0  0  0  0  0  0  0  0
    0.8260   -4.5710    3.1876 H   0  0  0  0  0  0  0  0  0  0  0  0
   -0.3034   -2.7498    2.8481 C   0  0  0  0  0  0  0  0  0  0  0  0
   -1.1200   -3.0293    3.5252 H   0  0  0  0  0  0  0  0  0  0  0  0
   -0.3246   -1.5328    2.1469 C   0  0  0  0  0  0  0  0  0  0  0  0
   -1.3819   -0.5009    2.3178 C   0  0  1  0  0  3  0  0  0  0  0  0
   -2.4784   -0.6622    3.1843 C   0  0  0  0  0  0  0  0  0  0  0  0
   -2.6321   -1.6036    3.7272 H   0  0  0  0  0  0  0  0  0  0  0  0
   -3.3798    0.3953    3.3457 C   0  0  0  0  0  0  0  0  0  0  0  0
   -4.2449    0.2880    4.0164 H   0  0  0  0  0  0  0  0  0  0  0  0
   -3.1652    1.5860    2.6387 C   0  0  0  0  0  0  0  0  0  0  0  0
   -3.8468    2.4425    2.7359 H   0  0  0  0  0  0  0  0  0  0  0  0
   -2.0647    1.6546    1.7759 C   0  0  0  0  0  0  0  0  0  0  0  0
   -1.8751    2.5585    1.1767 H   0  0  0  0  0  0  0  0  0  0  0  0
    2.3887   -1.5313   -1.2481 C   0  0  2  0  0  3  0  0  0  0  0  0
    3.1021   -2.2341   -2.2348 C   0  0  0  0  0  0  0  0  0  0  0  0
    4.0355   -2.7558   -1.9967 H   0  0  0  0  0  0  0  0  0  0  0  0
    2.6129   -2.2724   -3.5491 C   0  0  0  0  0  0  0  0  0  0  0  0
    3.1650   -2.8242   -4.3246 H   0  0  0  0  0  0  0  0  0  0  0  0
    1.4215   -1.6083   -3.8516 C   0  0  0  0  0  0  0  0  0  0  0  0
    0.9905   -1.6182   -4.8622 H   0  0  0  0  0  0  0  0  0  0  0  0
    0.7654   -0.9252   -2.8216 C   0  0  0  0  0  0  0  0  0  0  0  0
   -0.1876   -0.4057   -2.9954 H   0  0  0  0  0  0  0  0  0  0  0  0
    2.8857   -1.4629    0.2249 C   0  0  1  0  0  0  0  0  0  0  0  0
    4.1470   -2.3217    0.4058 C   0  0  0  0  0  0  0  0  0  0  0  0
    4.9867   -1.9293   -0.1963 H   0  0  0  0  0  0  0  0  0  0  0  0
    3.9706   -3.3655    0.0911 H   0  0  0  0  0  0  0  0  0  0  0  0
    4.4638   -2.3408    1.4649 H   0  0  0  0  0  0  0  0  0  0  0  0
  1 13  1  0  0  0  0
  1  6  1  0  0  0  0
  2 14  1  0  0  0  0
  3 30  1  0  0  0  0
  4 38  1  0  0  0  0
  4 31  1  0  0  0  0
  5 40  1  0  0  0  0
  6 49  1  6  0  0  0
  6  7  1  0  0  0  0
  7  9  2  0  0  0  0
  7  8  1  0  0  0  0
  9 10  1  0  0  0  0
 11 12  1  0  0  0  0
 11  9  1  0  0  0  0
 13 11  2  0  0  0  0
 14 13  1  6  0  0  0
 15 14  1  0  0  0  0
 15 16  1  0  0  0  0
 17 15  2  0  0  0  0
 18 17  1  0  0  0  0
 19 21  2  0  0  0  0
 19 17  1  0  0  0  0
 20 19  1  0  0  0  0
 21  2  1  0  0  0  0
 22 21  1  0  0  0  0
 23 49  1  1  0  0  0
 23  3  1  0  0  0  0
 23 24  1  0  0  0  0
 24 26  2  0  0  0  0
 25 24  1  0  0  0  0
 26 28  1  0  0  0  0
 26 27  1  0  0  0  0
 28 29  1  0  0  0  0
 30 28  2  0  0  0  0
 31 30  1  1  0  0  0
 31 32  1  0  0  0  0
 32 34  2  0  0  0  0
 32 33  1  0  0  0  0
 34 35  1  0  0  0  0
 36 37  1  0  0  0  0
 36 34  1  0  0  0  0
 38 36  2  0  0  0  0
 39 38  1  0  0  0  0
 40 49  1  1  0  0  0
 41 42  1  0  0  0  0
 41 40  1  0  0  0  0
 43 41  2  0  0  0  0
 44 43  1  0  0  0  0
 45 43  1  0  0  0  0
 45 47  2  0  0  0  0
 46 45  1  0  0  0  0
 47  5  1  0  0  0  0
 48 47  1  0  0  0  0
 49 50  1  1  0  0  0
 50 53  1  0  0  0  0
 51 50  1  0  0  0  0
 52 50  1  0  0  0  0
M  END
