2,3,4,5,6
q = -1.0, confidence = 0.008

 46 48  0  0  1  0  0  0  0  0999 V2000
   -0.4679    1.8922    3.0359 O   0  0  0  0  0  0  0  0  0  0  0  0
    0.1220    1.7810   -0.4900 N   0  0  0  0  0  2  0  0  0  0  0  0
   -0.1839    0.1980    1.4642 N   0  0  0  0  0  2  0  0  0  0  0  0
   -0.0146   -2.1327    0.2366 N   0  0  0  0  0  0  0  0  0  0  0  0
    2.0118   -0.4745   -0.1531 N   0  0  0  0  0  2  0  0  0  0  0  0
   -1.9762   -0.3811   -0.3917 N   0  0  0  0  0  2  0  0  0  0  0  0
    0.3122    2.5520   -1.5928 C   0  0  0  0  0  3  0  0  0  0  0  0
    0.3877    2.0269   -2.5562 H   0  0  0  0  0  0  0  0  0  0  0  0
    0.4052    3.9454   -1.5191 C   0  0  0  0  0  0  0  0  0  0  0  0
    0.5589    4.5196   -2.4439 H   0  0  0  0  0  0  0  0  0  0  0  0
    0.2977    4.5842   -0.2716 C   0  0  0  0  0  0  0  0  0  0  0  0
    0.3669    5.6789   -0.1928 H   0  0  0  0  0  0  0  0  0  0  0  0
    0.0958    3.7909    0.8659 C   0  0  0  0  0  0  0  0  0  0  0  0
   -0.0117    4.2006    1.8813 H   0  0  0  0  0  0  0  0  0  0  0  0
    0.0182    2.4028    0.7256 C   0  0  0  0  0  0  0  0  0  0  0  0
   -0.2335    1.4874    1.8938 C   0  0  0  0  0  0  0  0  0  0  0  0
   -0.5953   -0.8910    2.3175 C   0  0  0  0  0  0  0  0  0  0  0  0
   -1.7072   -0.9934    2.3416 H   0  0  0  0  0  0  0  0  0  0  0  0
   -0.2832   -0.7226    3.3707 H   0  0  0  0  0  0  0  0  0  0  0  0
    0.0606   -2.1404    1.7453 C   0  0  0  0  0  0  0  0  0  0  0  0
   -0.3766   -3.0848    2.1334 H   0  0  0  0  0  0  0  0  0  0  0  0
    1.1358   -2.1316    2.0082 H   0  0  0  0  0  0  0  0  0  0  0  0
    1.2086   -2.7496   -0.3403 C   0  0  0  0  0  0  0  0  0  0  0  0
    1.0382   -2.9072   -1.4259 H   0  0  0  0  0  0  0  0  0  0  0  0
    1.4289   -3.7416    0.1120 H   0  0  0  0  0  0  0  0  0  0  0  0
    2.3592   -1.7902   -0.1398 C   0  0  2  0  0  3  0  0  0  0  0  0
    3.6858   -2.1944    0.0502 C   0  0  0  0  0  0  0  0  0  0  0  0
    3.9353   -3.2652    0.0662 H   0  0  0  0  0  0  0  0  0  0  0  0
    4.6774   -1.2173    0.2260 C   0  0  0  0  0  0  0  0  0  0  0  0
    5.7271   -1.5106    0.3740 H   0  0  0  0  0  0  0  0  0  0  0  0
    4.3050    0.1337    0.2267 C   0  0  0  0  0  0  0  0  0  0  0  0
    5.0460    0.9318    0.3745 H   0  0  0  0  0  0  0  0  0  0  0  0
    2.9580    0.4649    0.0400 C   0  0  0  0  0  0  0  0  0  0  0  0
    2.6176    1.5102    0.0411 H   0  0  0  0  0  0  0  0  0  0  0  0
   -1.2833   -2.6987   -0.2834 C   0  0  0  0  0  0  0  0  0  0  0  0
   -1.5729   -3.6282    0.2530 H   0  0  0  0  0  0  0  0  0  0  0  0
   -1.1186   -2.9704   -1.3481 H   0  0  0  0  0  0  0  0  0  0  0  0
   -2.3844   -1.6658   -0.2213 C   0  0  2  0  0  3  0  0  0  0  0  0
   -3.7377   -1.9860   -0.0528 C   0  0  0  0  0  0  0  0  0  0  0  0
   -4.0390   -3.0333    0.0940 H   0  0  0  0  0  0  0  0  0  0  0  0
   -4.6881   -0.9553   -0.0701 C   0  0  0  0  0  0  0  0  0  0  0  0
   -5.7565   -1.1820    0.0596 H   0  0  0  0  0  0  0  0  0  0  0  0
   -4.2536    0.3665   -0.2442 C   0  0  0  0  0  0  0  0  0  0  0  0
   -4.9632    1.2056   -0.2579 H   0  0  0  0  0  0  0  0  0  0  0  0
   -2.8851    0.6137   -0.3954 C   0  0  0  0  0  0  0  0  0  0  0  0
   -2.4929    1.6334   -0.5195 H   0  0  0  0  0  0  0  0  0  0  0  0
  2 15  1  0  0  0  0
  3 16  1  0  0  0  0
  3 17  1  0  0  0  0
  4 20  1  0  0  0  0
  5 26  1  0  0  0  0
  5 33  1  0  0  0  0
  6 38  1  0  0  0  0
  7  9  1  0  0  0  0
  7  2  1  0  0  0  0
  8  7  1  0  0  0  0
  9 11  2  0  0  0  0
 10  9  1  0  0  0  0
 11 12  1  0  0  0  0
 11 13  1  0  0  0  0
 13 14  1  0  0  0  0
 15 13  2  0  0  0  0
 15 16  1  0  0  0  0
 16  1  2  0  0  0  0
 17 18  1  0  0  0  0
 17 19  1  0  0  0  0
 20 22  1  0  0  0  0
 20 21  1  0  0  0  0
 20 17  1  0  0  0  0
 23 25  1  0  0  0  0
 23  4  1  0  0  0  0
 24 23  1  0  0  0  0
 26 23  1  1  0  0  0
 26 27  1  0  0  0  0
 27 28  1  0  0  0  0
 27 29  2  0  0  0  0
 29 31  1  0  0  0  0
 29 30  1  0  0  0  0
 31 32  1  0  0  0  0
 33 34  1  0  0  0  0
 33 31  2  0  0  0  0
 35  4  1  0  0  0  0
 35 36  1  0  0  0  0
 37 35  1  0  0  0  0
 38 35  1  6  0  0  0
 38 39  1  0  0  0  0
 39 40  1  0  0  0  0
 41 39  2  0  0  0  0
 41 42  1  0  0  0  0
 43 41  1  0  0  0  0
 44 43  1  0  0  0  0
 45  6  1  0  0  0  0
 45 43  2  0  0  0  0
 46 45  1  0  0  0  0
M  END
