1,14,27,40,55
q = 0.0, confidence = 0.974

 61 64  0  0  0  0  0  0  0  0999 V2000
    0.8360   -1.8474    0.6579 N   0  0  0  0  0  2  0  0  0  0  0  0
    0.5454   -2.2741    1.9136 C   0  0  0  0  0  3  0  0  0  0  0  0
    0.3483   -1.4720    2.6402 H   0  0  0  0  0  0  0  0  0  0  0  0
    0.4803   -3.6297    2.2429 C   0  0  0  0  0  0  0  0  0  0  0  0
    0.2370   -3.9227    3.2739 H   0  0  0  0  0  0  0  0  0  0  0  0
    0.7159   -4.5899    1.2470 C   0  0  0  0  0  0  0  0  0  0  0  0
    0.6570   -5.6646    1.4722 H   0  0  0  0  0  0  0  0  0  0  0  0
    1.0365   -4.1488   -0.0447 C   0  0  0  0  0  0  0  0  0  0  0  0
    1.2444   -4.8658   -0.8528 H   0  0  0  0  0  0  0  0  0  0  0  0
    1.1017   -2.7738   -0.3017 C   0  0  0  0  0  0  0  0  0  0  0  0
    1.5307   -2.2207   -1.6356 C   0  0  0  0  0  0  0  0  0  0  0  0
    1.0131   -2.7380   -2.4711 H   0  0  0  0  0  0  0  0  0  0  0  0
    2.6113   -2.4346   -1.7689 H   0  0  0  0  0  0  0  0  0  0  0  0
    2.7426    0.0627    0.3089 N   0  0  0  0  0  2  0  0  0  0  0  0
    3.4045    0.1169    1.4915 C   0  0  0  0  0  3  0  0  0  0  0  0
    2.7680    0.2026    2.3844 H   0  0  0  0  0  0  0  0  0  0  0  0
    4.8009    0.0906    1.5571 C   0  0  0  0  0  0  0  0  0  0  0  0
    5.2951    0.1463    2.5374 H   0  0  0  0  0  0  0  0  0  0  0  0
    5.5456   -0.0069    0.3717 C   0  0  0  0  0  0  0  0  0  0  0  0
    6.6444   -0.0340    0.3969 H   0  0  0  0  0  0  0  0  0  0  0  0
    4.8583   -0.0775   -0.8520 C   0  0  0  0  0  0  0  0  0  0  0  0
    5.4019   -0.1644   -1.8041 H   0  0  0  0  0  0  0  0  0  0  0  0
    3.4618   -0.0341   -0.8531 C   0  0  0  0  0  0  0  0  0  0  0  0
    2.5980   -0.0599   -2.0883 C   0  0  0  0  0  0  0  0  0  0  0  0
    2.3492    0.9760   -2.3982 H   0  0  0  0  0  0  0  0  0  0  0  0
    3.1118   -0.5456   -2.9466 H   0  0  0  0  0  0  0  0  0  0  0  0
    0.7296    1.8604   -0.5190 N   0  0  0  0  0  2  0  0  0  0  0  0
    1.7418    2.7678   -0.5421 C   0  0  0  0  0  3  0  0  0  0  0  0
    2.7280    2.4106   -0.2171 H   0  0  0  0  0  0  0  0  0  0  0  0
    1.5622    4.0931   -0.9408 C   0  0  0  0  0  0  0  0  0  0  0  0
    2.4212    4.7787   -0.9339 H   0  0  0  0  0  0  0  0  0  0  0  0
    0.2854    4.5231   -1.3328 C   0  0  0  0  0  0  0  0  0  0  0  0
    0.1104    5.5598   -1.6543 H   0  0  0  0  0  0  0  0  0  0  0  0
   -0.7677    3.6022   -1.2823 C   0  0  0  0  0  0  0  0  0  0  0  0
   -1.7943    3.8962   -1.5446 H   0  0  0  0  0  0  0  0  0  0  0  0
   -0.5197    2.2898   -0.8575 C   0  0  0  0  0  0  0  0  0  0  0  0
   -1.6335    1.3172   -0.6187 C   0  0  0  0  0  0  0  0  0  0  0  0
   -2.1043    1.5925    0.3497 H   0  0  0  0  0  0  0  0  0  0  0  0
   -2.4419    1.4226   -1.3727 H   0  0  0  0  0  0  0  0  0  0  0  0
   -1.1601   -0.0893   -0.5211 N   0  0  0  0  0  0  0  0  0  0  0  0
   -2.0831   -0.8589    0.3980 C   0  0  0  0  0  0  0  0  0  0  0  0
   -1.6904   -1.8913    0.4434 H   0  0  0  0  0  0  0  0  0  0  0  0
   -1.9616   -0.4073    1.4000 H   0  0  0  0  0  0  0  0  0  0  0  0
   -3.5377   -0.8743   -0.0184 C   0  0  0  0  0  0  0  0  0  0  0  0
   -4.4367    0.1088    0.4499 C   0  0  0  0  0  0  0  0  0  0  0  0
   -4.1058    0.8872    1.1590 H   0  0  0  0  0  0  0  0  0  0  0  0
   -5.7766    0.0984    0.0326 C   0  0  0  0  0  0  0  0  0  0  0  0
   -6.4650    0.8682    0.4118 H   0  0  0  0  0  0  0  0  0  0  0  0
   -6.2391   -0.8922   -0.8477 C   0  0  0  0  0  0  0  0  0  0  0  0
   -7.2918   -0.8998   -1.1679 H   0  0  0  0  0  0  0  0  0  0  0  0
   -5.3589   -1.8873   -1.3020 C   0  0  0  0  0  0  0  0  0  0  0  0
   -5.7207   -2.6816   -1.9721 H   0  0  0  0  0  0  0  0  0  0  0  0
   -4.0198   -1.8783   -0.8861 C   0  0  0  0  0  0  0  0  0  0  0  0
   -3.3445   -2.6817   -1.2230 H   0  0  0  0  0  0  0  0  0  0  0  0
    1.3242   -0.7407   -1.7312 N   0  0  0  0  0  0  0  0  0  0  0  0
    0.1738   -0.3882   -2.6002 C   0  0  0  0  0  0  0  0  0  0  0  0
    0.2197   -0.9214   -3.5767 H   0  0  0  0  0  0  0  0  0  0  0  0
    0.2266    0.6963   -2.8151 H   0  0  0  0  0  0  0  0  0  0  0  0
   -1.1063   -0.7438   -1.8621 C   0  0  0  0  0  0  0  0  0  0  0  0
   -2.0002   -0.4906   -2.4710 H   0  0  0  0  0  0  0  0  0  0  0  0
   -1.1446   -1.8388   -1.6960 H   0  0  0  0  0  0  0  0  0  0  0  0
  1  2  1  0  0  0  0
  2  4  1  0  0  0  0
  2  3  1  0  0  0  0
  4  5  1  0  0  0  0
  6  7  1  0  0  0  0
  6  4  2  0  0  0  0
  8  6  1  0  0  0  0
  9  8  1  0  0  0  0
 10  8  2  0  0  0  0
 10  1  1  0  0  0  0
 11 10  1  0  0  0  0
 12 11  1  0  0  0  0
 13 11  1  0  0  0  0
 14 15  1  0  0  0  0
 15 17  1  0  0  0  0
 15 16  1  0  0  0  0
 17 18  1  0  0  0  0
 19 20  1  0  0  0  0
 19 17  2  0  0  0  0
 21 19  1  0  0  0  0
 22 21  1  0  0  0  0
 23 21  2  0  0  0  0
 23 14  1  0  0  0  0
 24 55  1  0  0  0  0
 24 23  1  0  0  0  0
 25 24  1  0  0  0  0
 26 24  1  0  0  0  0
 28 27  1  0  0  0  0
 28 29  1  0  0  0  0
 30 31  1  0  0  0  0
 30 28  1  0  0  0  0
 32 34  1  0  0  0  0
 32 30  2  0  0  0  0
 33 32  1  0  0  0  0
 34 36  2  0  0  0  0
 35 34  1  0  0  0  0
 36 37  1  0  0  0  0
 36 27  1  0  0  0  0
 37 40  1  0  0  0  0
 37 38  1  0  0  0  0
 39 37  1  0  0  0  0
 40 41  1  0  0  0  0
 41 42  1  0  0  0  0
 41 43  1  0  0  0  0
 44 41  1  0  0  0  0
 44 45  1  0  0  0  0
 45 46  1  0  0  0  0
 47 48  1  0  0  0  0
 47 45  2  0  0  0  0
 49 47  1  0  0  0  0
 50 49  1  0  0  0  0
 51 53  1  0  0  0  0
 51 49  2  0  0  0  0
 52 51  1  0  0  0  0
 53 44  2  0  0  0  0
 54 53  1  0  0  0  0
 55 11  1  0  0  0  0
 56 59  1  0  0  0  0
 56 55  1  0  0  0  0
 57 56  1  0  0  0  0
 58 56  1  0  0  0  0
 59 61  1  0  0  0  0
 59 40  1  0  0  0  0
 60 59  1  0  0  0  0
M  END
