1,2,3,4,5
q = -2.0, confidence = 0.986

 42 43  0  0  0  0  0  0  0  0999 V2000
    1.5342   -0.4673   -0.8648 N   0  0  0  0  0  0  0  0  0  0  0  0
    0.5184    1.1998    0.9480 N   0  0  0  0  0  0  0  0  0  0  0  0
    0.3065   -1.5345    1.1234 N   0  0  0  0  0  2  0  0  0  0  0  0
   -0.5386    1.3244   -1.3671 N   0  0  0  0  0  2  0  0  0  0  0  0
   -2.0925    0.1662    0.5188 N   0  0  0  0  0  0  0  0  0  0  0  0
    1.2178    1.2730    2.1035 C   0  0  0  0  0  3  0  0  0  0  0  0
    1.3236    0.4150    2.7768 H   0  0  0  0  0  0  0  0  0  0  0  0
   -0.0423    2.4739   -0.9373 C   0  0  0  0  0  3  0  0  0  0  0  0
   -0.1813    3.4029   -1.5204 H   0  0  0  0  0  0  0  0  0  0  0  0
    1.3750    3.3196    1.1190 C   0  0  0  0  0  0  0  0  0  0  0  0
    1.6064    4.3680    0.8990 H   0  0  0  0  0  0  0  0  0  0  0  0
    0.6194    2.4374    0.3067 C   0  0  0  0  0  0  0  0  0  0  0  0
   -2.5824   -0.6948    1.6301 C   0  0  0  0  0  0  0  0  0  0  0  0
   -2.9565   -1.6375    1.1776 H   0  0  0  0  0  0  0  0  0  0  0  0
   -3.4642   -0.1985    2.0909 H   0  0  0  0  0  0  0  0  0  0  0  0
    2.2642   -1.4026   -0.1361 C   0  0  0  0  0  3  0  0  0  0  0  0
    3.6160   -0.5816   -1.7472 C   0  0  0  0  0  0  0  0  0  0  0  0
    4.4663   -0.3813   -2.4091 H   0  0  0  0  0  0  0  0  0  0  0  0
   -0.5021   -2.0319    2.2244 C   0  0  0  0  0  0  0  0  0  0  0  0
    0.1540   -2.3245    3.0728 H   0  0  0  0  0  0  0  0  0  0  0  0
   -1.0378   -2.9588    1.9079 H   0  0  0  0  0  0  0  0  0  0  0  0
    1.5484   -1.9535    0.9501 C   0  0  0  0  0  3  0  0  0  0  0  0
    1.9982   -2.6904    1.6407 H   0  0  0  0  0  0  0  0  0  0  0  0
    1.7475    2.5807    2.2537 C   0  0  0  0  0  0  0  0  0  0  0  0
    2.3300    2.9345    3.1122 H   0  0  0  0  0  0  0  0  0  0  0  0
    2.3470    0.0453   -1.8224 C   0  0  0  0  0  0  0  0  0  0  0  0
    2.0044    0.8317   -2.5062 H   0  0  0  0  0  0  0  0  0  0  0  0
   -1.5398   -1.0135    2.6923 C   0  0  0  0  0  0  0  0  0  0  0  0
   -2.0707   -1.4402    3.5670 H   0  0  0  0  0  0  0  0  0  0  0  0
   -1.0497   -0.0833    3.0476 H   0  0  0  0  0  0  0  0  0  0  0  0
   -3.1245    0.2125   -0.5625 C   0  0  0  0  0  0  0  0  0  0  0  0
   -3.1144   -0.7746   -1.0658 H   0  0  0  0  0  0  0  0  0  0  0  0
   -4.1221    0.3177   -0.0825 H   0  0  0  0  0  0  0  0  0  0  0  0
   -1.6134    1.2924   -2.3388 C   0  0  0  0  0  0  0  0  0  0  0  0
   -1.5410    0.3689   -2.9469 H   0  0  0  0  0  0  0  0  0  0  0  0
   -1.5384    2.1618   -3.0274 H   0  0  0  0  0  0  0  0  0  0  0  0
   -2.9512    1.3308   -1.5859 C   0  0  0  0  0  0  0  0  0  0  0  0
   -3.0518    2.3177   -1.0826 H   0  0  0  0  0  0  0  0  0  0  0  0
   -3.7920    1.2598   -2.3064 H   0  0  0  0  0  0  0  0  0  0  0  0
    3.5707   -1.4946   -0.6777 C   0  0  0  0  0  0  0  0  0  0  0  0
    4.3758   -2.1517   -0.3290 H   0  0  0  0  0  0  0  0  0  0  0  0
   -1.9747    1.1197    0.9000 H   0  0  0  0  0  0  0  0  0  0  0  0
  1 16  1  0  0  0  0
  2  6  1  0  0  0  0
  3 19  1  0  0  0  0
  4  8  1  0  0  0  0
  5 42  1  0  0  0  0
  5 13  1  0  0  0  0
  6 24  1  0  0  0  0
  6  7  1  0  0  0  0
  8 12  1  0  0  0  0
  9  8  1  0  0  0  0
 10 24  2  0  0  0  0
 11 10  1  0  0  0  0
 12  2  2  0  0  0  0
 12 10  1  0  0  0  0
 13 15  1  0  0  0  0
 13 28  1  0  0  0  0
 14 13  1  0  0  0  0
 16 22  1  0  0  0  0
 17 40  2  0  0  0  0
 18 17  1  0  0  0  0
 19 28  1  0  0  0  0
 19 20  1  0  0  0  0
 21 19  1  0  0  0  0
 22  3  1  0  0  0  0
 22 23  1  0  0  0  0
 24 25  1  0  0  0  0
 26 17  1  0  0  0  0
 26  1  2  0  0  0  0
 27 26  1  0  0  0  0
 28 30  1  0  0  0  0
 28 29  1  0  0  0  0
 31 33  1  0  0  0  0
 31  5  1  0  0  0  0
 32 31  1  0  0  0  0
 34 37  1  0  0  0  0
 34  4  1  0  0  0  0
 35 34  1  0  0  0  0
 36 34  1  0  0  0  0
 37 38  1  0  0  0  0
 37 31  1  0  0  0  0
 39 37  1  0  0  0  0
 40 41  1  0  0  0  0
 40 16  1  0  0  0  0
M  END
