1,4,8,11,17
q = -1.0, confidence = 0.202

 45 46  0  0  1  0  0  0  0  0999 V2000
    1.9143    0.9454    1.3551 N   0  0  0  0  0  0  0  0  0  0  0  0
    1.8573    2.3850    0.9757 C   0  0  0  0  0  0  0  0  0  0  0  0
    0.4239    2.7985    0.6611 C   0  0  0  0  0  0  0  0  0  0  0  0
   -0.0940    1.9222   -0.3867 N   0  0  0  0  0  2  0  0  0  0  0  0
   -1.4292    2.1039   -0.6672 C   0  0  0  0  0  0  0  0  0  0  0  0
   -2.0259    1.1735   -1.7471 C   0  0  0  0  0  0  0  0  0  0  0  0
   -1.8547   -0.3525   -1.5297 C   0  0  1  0  0  0  0  0  0  0  0  0
   -0.4616   -0.7422   -1.7600 N   0  0  0  0  0  0  0  0  0  0  0  0
   -0.1472   -2.1673   -1.8723 C   0  0  0  0  0  0  0  0  0  0  0  0
    1.3318   -2.3747   -1.5392 C   0  0  0  0  0  0  0  0  0  0  0  0
    1.6314   -1.8444   -0.1903 N   0  0  0  0  0  0  0  0  0  0  0  0
    3.0750   -1.8066    0.1285 C   0  0  0  0  0  0  0  0  0  0  0  0
    3.3772   -1.1128    1.4594 C   0  0  0  0  0  0  0  0  0  0  0  0
    3.2950    0.4146    1.4274 C   0  0  0  0  0  0  0  0  0  0  0  0
   -2.1473    2.9492   -0.1303 O   0  0  0  0  0  0  0  0  0  0  0  0
   -2.2659   -0.7292   -0.1076 C   0  0  1  0  0  3  0  0  0  0  0  0
   -1.2931   -0.7136    0.8372 N   0  0  0  0  0  2  0  0  0  0  0  0
   -1.6148   -0.9487    2.1257 C   0  0  0  0  0  0  0  0  0  0  0  0
   -2.9238   -1.2137    2.5386 C   0  0  0  0  0  0  0  0  0  0  0  0
   -3.9360   -1.2393    1.5668 C   0  0  0  0  0  0  0  0  0  0  0  0
   -3.6010   -0.9976    0.2283 C   0  0  0  0  0  0  0  0  0  0  0  0
    1.4829    0.8503    2.2878 H   0  0  0  0  0  0  0  0  0  0  0  0
    2.3037    3.0259    1.7667 H   0  0  0  0  0  0  0  0  0  0  0  0
    2.4789    2.4895    0.0624 H   0  0  0  0  0  0  0  0  0  0  0  0
    0.4067    3.8671    0.3534 H   0  0  0  0  0  0  0  0  0  0  0  0
   -0.2163    2.7571    1.5755 H   0  0  0  0  0  0  0  0  0  0  0  0
   -3.1047    1.4111   -1.7856 H   0  0  0  0  0  0  0  0  0  0  0  0
   -1.6001    1.4277   -2.7426 H   0  0  0  0  0  0  0  0  0  0  0  0
   -2.5432   -0.8744   -2.2342 H   0  0  0  0  0  0  0  0  0  0  0  0
   -0.0118   -0.1892   -2.5086 H   0  0  0  0  0  0  0  0  0  0  0  0
   -0.7833   -2.7259   -1.1523 H   0  0  0  0  0  0  0  0  0  0  0  0
   -0.3698   -2.5822   -2.8804 H   0  0  0  0  0  0  0  0  0  0  0  0
    1.9544   -1.8035   -2.2583 H   0  0  0  0  0  0  0  0  0  0  0  0
    1.6082   -3.4479   -1.6333 H   0  0  0  0  0  0  0  0  0  0  0  0
    1.1671   -2.4513    0.5033 H   0  0  0  0  0  0  0  0  0  0  0  0
    3.4954   -2.8377    0.1315 H   0  0  0  0  0  0  0  0  0  0  0  0
    3.5770   -1.2607   -0.6975 H   0  0  0  0  0  0  0  0  0  0  0  0
    4.4130   -1.3829    1.7496 H   0  0  0  0  0  0  0  0  0  0  0  0
    2.7338   -1.5261    2.2696 H   0  0  0  0  0  0  0  0  0  0  0  0
    3.8287    0.7855    0.5280 H   0  0  0  0  0  0  0  0  0  0  0  0
    3.8260    0.8447    2.3058 H   0  0  0  0  0  0  0  0  0  0  0  0
   -0.7863   -0.9247    2.8530 H   0  0  0  0  0  0  0  0  0  0  0  0
   -3.1423   -1.3978    3.5998 H   0  0  0  0  0  0  0  0  0  0  0  0
   -4.9784   -1.4464    1.8508 H   0  0  0  0  0  0  0  0  0  0  0  0
   -4.3689   -1.0092   -0.5591 H   0  0  0  0  0  0  0  0  0  0  0  0
  1 14  1  0  0  0  0
  1 22  1  0  0  0  0
  2  1  1  0  0  0  0
  2 23  1  0  0  0  0
  3  2  1  0  0  0  0
  3 26  1  0  0  0  0
  4  3  1  0  0  0  0
  5  4  1  0  0  0  0
  5 15  2  0  0  0  0
  6  7  1  0  0  0  0
  6  5  1  0  0  0  0
  7 29  1  6  0  0  0
  7 16  1  0  0  0  0
  8  7  1  0  0  0  0
  9  8  1  0  0  0  0
  9 10  1  0  0  0  0
  9 31  1  0  0  0  0
 10 11  1  0  0  0  0
 11 12  1  0  0  0  0
 11 35  1  0  0  0  0
 12 36  1  0  0  0  0
 12 13  1  0  0  0  0
 13 38  1  0  0  0  0
 13 39  1  0  0  0  0
 14 13  1  0  0  0  0
 14 41  1  0  0  0  0
 16 21  1  1  0  0  0
 16 17  1  0  0  0  0
 17 18  1  0  0  0  0
 18 19  2  0  0  0  0
 18 42  1  0  0  0  0
 19 43  1  0  0  0  0
 20 44  1  0  0  0  0
 20 19  1  0  0  0  0
 21 20  2  0  0  0  0
 24  2  1  0  0  0  0
 25  3  1  0  0  0  0
 27  6  1  0  0  0  0
 28  6  1  0  0  0  0
 30  8  1  0  0  0  0
 32  9  1  0  0  0  0
 33 10  1  0  0  0  0
 34 10  1  0  0  0  0
 37 12  1  0  0  0  0
 40 14  1  0  0  0  0
 45 21  1  0  0  0  0
M  END
