1,2,7,8,9
q = -2.0, confidence = 0.954

 71 77  0  0  1  0  0  0  0  0999 V2000
    0.0000    0.4483   -0.2099 N   0  0  0  0  0  2  0  0  0  0  0  0
   -1.5932   -1.2692    1.6473 N   0  0  0  0  0  2  0  0  0  0  0  0
    2.6614   -0.8960   -1.2257 N   0  0  0  0  0  0  0  0  0  0  0  0
   -2.5448   -0.3752    1.2830 N   0  0  0  0  0  0  0  0  0  0  0  0
   -2.6612   -0.8959   -1.2259 N   0  0  0  0  0  0  0  0  0  0  0  0
    2.5447   -0.3752    1.2831 N   0  0  0  0  0  0  0  0  0  0  0  0
    1.7163   -1.8685   -1.1902 N   0  0  0  0  0  2  0  0  0  0  0  0
    1.5929   -1.2688    1.6475 N   0  0  0  0  0  2  0  0  0  0  0  0
   -1.7160   -1.8682   -1.1905 N   0  0  0  0  0  2  0  0  0  0  0  0
   -1.1927    1.0313   -0.5378 C   0  0  1  0  0  3  0  0  0  0  0  0
   -3.9325    1.2007   -0.1674 C   0  0  0  0  0  0  0  0  0  0  0  0
    3.4086   -0.1956    2.3179 C   0  0  0  0  0  3  0  0  0  0  0  0
    4.2562    0.4890    2.2235 H   0  0  0  0  0  0  0  0  0  0  0  0
    1.2025    2.1921   -1.3364 C   0  0  0  0  0  0  0  0  0  0  0  0
    2.1649    2.6230   -1.6444 H   0  0  0  0  0  0  0  0  0  0  0  0
   -1.8599   -1.6671    2.9077 C   0  0  0  0  0  3  0  0  0  0  0  0
   -1.2274   -2.4207    3.3912 H   0  0  0  0  0  0  0  0  0  0  0  0
   -1.2024    2.1922   -1.3364 C   0  0  0  0  0  0  0  0  0  0  0  0
   -2.1647    2.6231   -1.6443 H   0  0  0  0  0  0  0  0  0  0  0  0
    3.9325    1.2006   -0.1674 C   0  0  0  0  0  0  0  0  0  0  0  0
    1.1928    1.0312   -0.5379 C   0  0  0  0  0  0  0  0  0  0  0  0
    5.2223    0.6576   -0.3780 C   0  0  0  0  0  0  0  0  0  0  0  0
    5.3315   -0.4107   -0.6219 H   0  0  0  0  0  0  0  0  0  0  0  0
    0.0001    2.7632   -1.7623 C   0  0  0  0  0  0  0  0  0  0  0  0
    0.0001    3.6475   -2.4194 H   0  0  0  0  0  0  0  0  0  0  0  0
   -1.9082   -2.6643   -2.2645 C   0  0  0  0  0  3  0  0  0  0  0  0
   -1.2774   -3.5495   -2.4084 H   0  0  0  0  0  0  0  0  0  0  0  0
   -3.8932    2.5533    0.2444 C   0  0  0  0  0  0  0  0  0  0  0  0
   -2.9249    3.0177    0.4878 H   0  0  0  0  0  0  0  0  0  0  0  0
    1.8594   -1.6665    2.9081 C   0  0  0  0  0  0  0  0  0  0  0  0
    1.2267   -2.4197    3.3917 H   0  0  0  0  0  0  0  0  0  0  0  0
   -3.4213   -1.0459   -2.3394 C   0  0  0  0  0  0  0  0  0  0  0  0
   -4.2232   -0.3379   -2.5676 H   0  0  0  0  0  0  0  0  0  0  0  0
   -5.0550    3.3262    0.3872 C   0  0  0  0  0  0  0  0  0  0  0  0
   -4.9722    4.3756    0.7142 H   0  0  0  0  0  0  0  0  0  0  0  0
   -6.3888    1.4249   -0.2426 C   0  0  0  0  0  0  0  0  0  0  0  0
   -7.3709    0.9557   -0.4173 H   0  0  0  0  0  0  0  0  0  0  0  0
   -5.2223    0.6575   -0.3780 C   0  0  0  0  0  0  0  0  0  0  0  0
   -5.3314   -0.4108   -0.6218 H   0  0  0  0  0  0  0  0  0  0  0  0
    3.4214   -1.0462   -2.3393 C   0  0  0  0  0  3  0  0  0  0  0  0
    4.2232   -0.3380   -2.5676 H   0  0  0  0  0  0  0  0  0  0  0  0
    3.8931    2.5532    0.2445 C   0  0  0  0  0  0  0  0  0  0  0  0
    2.9248    3.0175    0.4880 H   0  0  0  0  0  0  0  0  0  0  0  0
   -2.9781   -2.1788   -3.0347 C   0  0  0  0  0  0  0  0  0  0  0  0
   -3.3854   -2.5916   -3.9626 H   0  0  0  0  0  0  0  0  0  0  0  0
    1.9086   -2.6648   -2.2640 C   0  0  0  0  0  0  0  0  0  0  0  0
    1.2780   -3.5501   -2.4077 H   0  0  0  0  0  0  0  0  0  0  0  0
   -6.3292    2.7822    0.1306 C   0  0  0  0  0  0  0  0  0  0  0  0
   -3.4086   -0.1956    2.3179 C   0  0  0  0  0  0  0  0  0  0  0  0
   -4.2560    0.4893    2.2236 H   0  0  0  0  0  0  0  0  0  0  0  0
    3.0032   -1.0044    3.3849 C   0  0  0  0  0  0  0  0  0  0  0  0
    3.4806   -1.1015    4.3647 H   0  0  0  0  0  0  0  0  0  0  0  0
    6.3888    1.4250   -0.2427 C   0  0  0  0  0  0  0  0  0  0  0  0
    7.3709    0.9559   -0.4174 H   0  0  0  0  0  0  0  0  0  0  0  0
   -3.0035   -1.0047    3.3847 C   0  0  0  0  0  0  0  0  0  0  0  0
   -3.4809   -1.1019    4.3645 H   0  0  0  0  0  0  0  0  0  0  0  0
    6.3291    2.7823    0.1307 C   0  0  0  0  0  0  0  0  0  0  0  0
    5.0549    3.3262    0.3874 C   0  0  0  0  0  0  0  0  0  0  0  0
    4.9721    4.3755    0.7145 H   0  0  0  0  0  0  0  0  0  0  0  0
    2.9784   -2.1793   -3.0343 C   0  0  0  0  0  0  0  0  0  0  0  0
    3.3857   -2.5922   -3.9622 H   0  0  0  0  0  0  0  0  0  0  0  0
   -2.5990    0.2777   -0.1583 B   0  0  2  0  0  0  0  0  0  0  0  0
    2.5991    0.2776   -0.1583 B   0  0  1  0  0  0  0  0  0  0  0  0
   -7.5770    3.6211    0.2404 C   0  0  0  0  0  0  0  0  0  0  0  0
   -7.4647    4.4250    0.9947 H   0  0  0  0  0  0  0  0  0  0  0  0
   -8.4591    3.0089    0.5141 H   0  0  0  0  0  0  0  0  0  0  0  0
   -7.8118    4.1146   -0.7277 H   0  0  0  0  0  0  0  0  0  0  0  0
    7.5768    3.6213    0.2404 C   0  0  0  0  0  0  0  0  0  0  0  0
    8.4591    3.0091    0.5139 H   0  0  0  0  0  0  0  0  0  0  0  0
    7.4645    4.4251    0.9949 H   0  0  0  0  0  0  0  0  0  0  0  0
    7.8114    4.1150   -0.7276 H   0  0  0  0  0  0  0  0  0  0  0  0
  2 16  1  0  0  0  0
  3  7  1  0  0  0  0
  3 63  1  0  0  0  0
  4  2  1  0  0  0  0
  4 49  1  0  0  0  0
  5  9  1  0  0  0  0
  5 62  1  0  0  0  0
  6  8  1  0  0  0  0
  6 12  1  0  0  0  0
  8 30  1  0  0  0  0
 10  1  1  0  0  0  0
 10 62  1  6  0  0  0
 11 28  1  0  0  0  0
 12 51  1  0  0  0  0
 13 12  1  0  0  0  0
 14 21  2  0  0  0  0
 15 14  1  0  0  0  0
 16 55  1  0  0  0  0
 16 17  1  0  0  0  0
 18 10  1  0  0  0  0
 19 18  1  0  0  0  0
 20 63  1  0  0  0  0
 20 42  1  0  0  0  0
 21  1  1  0  0  0  0
 22 53  1  0  0  0  0
 22 20  2  0  0  0  0
 23 22  1  0  0  0  0
 24 14  1  0  0  0  0
 24 18  2  0  0  0  0
 25 24  1  0  0  0  0
 26  9  1  0  0  0  0
 27 26  1  0  0  0  0
 28 34  2  0  0  0  0
 28 29  1  0  0  0  0
 30 51  2  0  0  0  0
 30 31  1  0  0  0  0
 32  5  1  0  0  0  0
 33 32  1  0  0  0  0
 34 35  1  0  0  0  0
 36 48  2  0  0  0  0
 37 36  1  0  0  0  0
 38 36  1  0  0  0  0
 38 11  2  0  0  0  0
 39 38  1  0  0  0  0
 40  3  1  0  0  0  0
 41 40  1  0  0  0  0
 42 58  2  0  0  0  0
 42 43  1  0  0  0  0
 44 32  2  0  0  0  0
 44 26  1  0  0  0  0
 45 44  1  0  0  0  0
 46  7  1  0  0  0  0
 47 46  1  0  0  0  0
 48 64  1  0  0  0  0
 48 34  1  0  0  0  0
 49 55  2  0  0  0  0
 50 49  1  0  0  0  0
 51 52  1  0  0  0  0
 53 57  2  0  0  0  0
 54 53  1  0  0  0  0
 55 56  1  0  0  0  0
 57 68  1  0  0  0  0
 57 58  1  0  0  0  0
 58 59  1  0  0  0  0
 60 40  1  0  0  0  0
 60 46  2  0  0  0  0
 61 60  1  0  0  0  0
 62 11  1  6  0  0  0
 62  4  1  0  0  0  0
 63 21  1  6  0  0  0
 63  6  1  0  0  0  0
 64 66  1  0  0  0  0
 64 65  1  0  0  0  0
 67 64  1  0  0  0  0
 68 69  1  0  0  0  0
 68 70  1  0  0  0  0
 71 68  1  0  0  0  0
M  END
