45,46,47,48,49
q = 0.0, confidence = 1.0

 51 55  0  0  1  0  0  0  0  0999 V2000
    1.6335    0.4440    2.8006 C   0  0  0  0  0  3  0  0  0  0  0  0
    0.6374    0.5204    3.2683 H   0  0  0  0  0  0  0  0  0  0  0  0
    2.8202    0.5522    3.5365 C   0  0  0  0  0  0  0  0  0  0  0  0
    2.7780    0.7559    4.6158 H   0  0  0  0  0  0  0  0  0  0  0  0
    4.0414    0.3859    2.8707 C   0  0  0  0  0  0  0  0  0  0  0  0
    4.9939    0.4570    3.4170 H   0  0  0  0  0  0  0  0  0  0  0  0
    4.0391    0.1225    1.4931 C   0  0  0  0  0  0  0  0  0  0  0  0
    4.9677   -0.0207    0.9276 H   0  0  0  0  0  0  0  0  0  0  0  0
    2.8034    0.0432    0.8348 C   0  0  0  0  0  0  0  0  0  0  0  0
    2.7349   -0.2332   -0.6803 C   0  0  2  0  0  0  0  0  0  0  0  0
    2.0756    0.9887   -1.3656 C   0  0  2  0  0  3  0  0  0  0  0  0
    2.7883    1.7725   -2.2900 C   0  0  0  0  0  0  0  0  0  0  0  0
    3.8242    1.5225   -2.5512 H   0  0  0  0  0  0  0  0  0  0  0  0
    2.1570    2.8999   -2.8348 C   0  0  0  0  0  0  0  0  0  0  0  0
    2.6832    3.5253   -3.5708 H   0  0  0  0  0  0  0  0  0  0  0  0
    0.8688    3.2469   -2.4114 C   0  0  0  0  0  0  0  0  0  0  0  0
    0.3817    4.1491   -2.8039 H   0  0  0  0  0  0  0  0  0  0  0  0
    0.2364    2.4355   -1.4507 C   0  0  0  0  0  0  0  0  0  0  0  0
   -1.0663    2.7659   -0.8076 C   0  0  2  0  0  3  0  0  0  0  0  0
   -1.8344    3.8965   -1.1414 C   0  0  0  0  0  0  0  0  0  0  0  0
   -1.5270    4.5668   -1.9551 H   0  0  0  0  0  0  0  0  0  0  0  0
   -3.0000    4.1658   -0.4110 C   0  0  0  0  0  0  0  0  0  0  0  0
   -3.6128    5.0462   -0.6554 H   0  0  0  0  0  0  0  0  0  0  0  0
   -3.3645    3.3087    0.6368 C   0  0  0  0  0  0  0  0  0  0  0  0
   -4.2608    3.4953    1.2453 H   0  0  0  0  0  0  0  0  0  0  0  0
   -2.5570    2.1920    0.8994 C   0  0  0  0  0  0  0  0  0  0  0  0
   -2.7768    1.4613    1.7001 H   0  0  0  0  0  0  0  0  0  0  0  0
   -3.3148   -0.7582   -0.7994 C   0  0  0  0  0  3  0  0  0  0  0  0
   -3.5766    0.2922   -0.5957 H   0  0  0  0  0  0  0  0  0  0  0  0
   -4.3172   -1.7124   -1.0232 C   0  0  0  0  0  0  0  0  0  0  0  0
   -5.3756   -1.4162   -1.0141 H   0  0  0  0  0  0  0  0  0  0  0  0
   -3.9324   -3.0426   -1.2378 C   0  0  0  0  0  0  0  0  0  0  0  0
   -4.6856   -3.8286   -1.3938 H   0  0  0  0  0  0  0  0  0  0  0  0
   -2.5687   -3.3593   -1.2482 C   0  0  0  0  0  0  0  0  0  0  0  0
   -2.2468   -4.3968   -1.4085 H   0  0  0  0  0  0  0  0  0  0  0  0
   -1.6282   -2.3329   -1.0393 C   0  0  0  0  0  0  0  0  0  0  0  0
   -0.1595   -2.5601   -1.0921 C   0  0  1  0  0  3  0  0  0  0  0  0
    0.4305   -3.7715   -1.5005 C   0  0  0  0  0  0  0  0  0  0  0  0
   -0.1879   -4.6393   -1.7630 H   0  0  0  0  0  0  0  0  0  0  0  0
    1.8249   -3.8521   -1.5735 C   0  0  0  0  0  0  0  0  0  0  0  0
    2.3102   -4.7963   -1.8614 H   0  0  0  0  0  0  0  0  0  0  0  0
    2.5998   -2.7159   -1.3010 C   0  0  0  0  0  0  0  0  0  0  0  0
    3.6955   -2.7442   -1.3605 H   0  0  0  0  0  0  0  0  0  0  0  0
    1.9383   -1.5347   -0.9234 C   0  0  0  0  0  0  0  0  0  0  0  0
    1.6297    0.1983    1.4758 N   0  0  0  0  0  2  0  0  0  0  0  0
    0.8337    1.3192   -0.9866 N   0  0  0  0  0  2  0  0  0  0  0  0
   -1.4495    1.9310    0.1861 N   0  0  0  0  0  2  0  0  0  0  0  0
   -2.0091   -1.0566   -0.8053 N   0  0  0  0  0  2  0  0  0  0  0  0
    0.6073   -1.4941   -0.7707 N   0  0  0  0  0  2  0  0  0  0  0  0
    4.0621   -0.3872   -1.1328 O   0  0  0  0  0  0  0  0  0  0  0  0
    4.0315   -0.6583   -2.0703 H   0  0  0  0  0  0  0  0  0  0  0  0
  1  2  1  0  0  0  0
  1  3  1  0  0  0  0
  3  4  1  0  0  0  0
  5  6  1  0  0  0  0
  5  3  2  0  0  0  0
  7  5  1  0  0  0  0
  8  7  1  0  0  0  0
  9 45  1  0  0  0  0
  9  7  2  0  0  0  0
 10 50  1  6  0  0  0
 10  9  1  0  0  0  0
 11 46  1  0  0  0  0
 11 10  1  1  0  0  0
 12 11  1  0  0  0  0
 13 12  1  0  0  0  0
 14 16  1  0  0  0  0
 14 12  2  0  0  0  0
 15 14  1  0  0  0  0
 16 18  2  0  0  0  0
 17 16  1  0  0  0  0
 18 46  1  0  0  0  0
 19 18  1  1  0  0  0
 19 47  1  0  0  0  0
 20 19  1  0  0  0  0
 20 22  2  0  0  0  0
 21 20  1  0  0  0  0
 22 24  1  0  0  0  0
 23 22  1  0  0  0  0
 24 26  2  0  0  0  0
 24 25  1  0  0  0  0
 26 27  1  0  0  0  0
 28 29  1  0  0  0  0
 30 31  1  0  0  0  0
 30 28  1  0  0  0  0
 32 30  2  0  0  0  0
 33 32  1  0  0  0  0
 34 32  1  0  0  0  0
 34 36  2  0  0  0  0
 35 34  1  0  0  0  0
 36 48  1  0  0  0  0
 37 36  1  6  0  0  0
 37 49  1  0  0  0  0
 38 37  1  0  0  0  0
 39 38  1  0  0  0  0
 40 38  2  0  0  0  0
 40 42  1  0  0  0  0
 41 40  1  0  0  0  0
 42 44  2  0  0  0  0
 43 42  1  0  0  0  0
 44 49  1  0  0  0  0
 44 10  1  0  0  0  0
 45  1  1  0  0  0  0
 47 26  1  0  0  0  0
 48 28  1  0  0  0  0
 51 50  1  0  0  0  0
M  END
