6,7,8,9,10
q = -2.0, confidence = 0.914

 73 78  0  0  1  0  0  0  0  0999 V2000
   -5.1164   -1.1713   -0.0622 S   0  0  0  0  0  0  0  0  0  0  0  0
   -1.5316    3.0915    0.1574 O   0  0  0  0  0  0  0  0  0  0  0  0
    4.1468    1.9214   -2.3509 O   0  0  0  0  0  0  0  0  0  0  0  0
    4.5773   -0.9923    2.3923 O   0  0  0  0  0  0  0  0  0  0  0  0
   -0.4035   -3.8790   -0.2014 O   0  0  0  0  0  0  0  0  0  0  0  0
   -0.6781   -0.3457   -0.0192 N   0  0  0  0  0  2  0  0  0  0  0  0
    0.5385    1.9659   -0.0421 N   0  0  0  0  0  2  0  0  0  0  0  0
    2.5819    0.5588   -1.4900 N   0  0  0  0  0  2  0  0  0  0  0  0
    2.6801   -0.1835    1.5016 N   0  0  0  0  0  2  0  0  0  0  0  0
    1.2009   -2.1577    0.0264 N   0  0  0  0  0  2  0  0  0  0  0  0
   -1.1265   -1.6078   -0.0824 C   0  0  2  0  0  3  0  0  0  0  0  0
   -2.4975   -1.8720   -0.1066 C   0  0  0  0  0  0  0  0  0  0  0  0
   -2.8337   -2.9170   -0.1720 H   0  0  0  0  0  0  0  0  0  0  0  0
   -3.4013   -0.7780   -0.0405 C   0  0  0  0  0  0  0  0  0  0  0  0
   -2.8861    0.5391    0.0370 C   0  0  0  0  0  0  0  0  0  0  0  0
   -3.5076    1.4414    0.0948 H   0  0  0  0  0  0  0  0  0  0  0  0
   -1.4965    0.7095    0.0343 C   0  0  0  0  0  0  0  0  0  0  0  0
   -0.8226    2.0768    0.0744 C   0  0  0  0  0  0  0  0  0  0  0  0
    1.3740    3.0607   -0.1117 C   0  0  0  0  0  0  0  0  0  0  0  0
    1.0579    4.3132    0.4911 C   0  0  0  0  0  0  0  0  0  0  0  0
    0.0787    4.4072    0.9750 H   0  0  0  0  0  0  0  0  0  0  0  0
    1.9463    5.3870    0.4567 C   0  0  0  0  0  0  0  0  0  0  0  0
    1.6661    6.3315    0.9492 H   0  0  0  0  0  0  0  0  0  0  0  0
    3.1884    5.2786   -0.1995 C   0  0  0  0  0  0  0  0  0  0  0  0
    3.8869    6.1277   -0.2264 H   0  0  0  0  0  0  0  0  0  0  0  0
    3.5158    4.0799   -0.8294 C   0  0  0  0  0  0  0  0  0  0  0  0
    4.4690    3.9790   -1.3658 H   0  0  0  0  0  0  0  0  0  0  0  0
    2.6406    2.9631   -0.8021 C   0  0  0  0  0  0  0  0  0  0  0  0
    3.0708    1.7700   -1.5329 C   0  0  1  0  0  3  0  0  0  0  0  0
    4.3409    0.6698   -3.0482 C   0  0  0  0  0  0  0  0  0  0  0  0
    5.4143    0.4047   -2.9969 H   0  0  0  0  0  0  0  0  0  0  0  0
    4.0551    0.8205   -4.1121 H   0  0  0  0  0  0  0  0  0  0  0  0
    3.4041   -0.3285   -2.3279 C   0  0  2  0  0  0  0  0  0  0  0  0
    3.9820   -0.9944   -1.6461 H   0  0  0  0  0  0  0  0  0  0  0  0
    2.5582   -1.1989   -3.2509 C   0  0  0  0  0  0  0  0  0  0  0  0
    1.8724   -1.8294   -2.6523 H   0  0  0  0  0  0  0  0  0  0  0  0
    3.2005   -1.8698   -3.8558 H   0  0  0  0  0  0  0  0  0  0  0  0
    1.9535   -0.5701   -3.9355 H   0  0  0  0  0  0  0  0  0  0  0  0
   -0.0553   -2.6929   -0.1098 C   0  0  0  0  0  0  0  0  0  0  0  0
    2.3370   -2.9347    0.1100 C   0  0  0  0  0  0  0  0  0  0  0  0
    2.4397   -4.2209   -0.4961 C   0  0  0  0  0  0  0  0  0  0  0  0
    1.5469   -4.6165   -0.9944 H   0  0  0  0  0  0  0  0  0  0  0  0
    3.6200   -4.9610   -0.4472 C   0  0  0  0  0  0  0  0  0  0  0  0
    3.6581   -5.9438   -0.9431 H   0  0  0  0  0  0  0  0  0  0  0  0
    4.7556   -4.4703    0.2275 C   0  0  0  0  0  0  0  0  0  0  0  0
    5.6850   -5.0569    0.2656 H   0  0  0  0  0  0  0  0  0  0  0  0
    4.6802   -3.2320    0.8611 C   0  0  0  0  0  0  0  0  0  0  0  0
    5.5455   -2.8387    1.4117 H   0  0  0  0  0  0  0  0  0  0  0  0
    3.4987   -2.4467    0.8194 C   0  0  0  0  0  0  0  0  0  0  0  0
    3.5219   -1.1820    1.5554 C   0  0  1  0  0  3  0  0  0  0  0  0
    4.3574    0.2536    3.0917 C   0  0  0  0  0  0  0  0  0  0  0  0
    5.2953    0.8406    3.0621 H   0  0  0  0  0  0  0  0  0  0  0  0
    4.1116    0.0159    4.1497 H   0  0  0  0  0  0  0  0  0  0  0  0
    3.1704    0.9133    2.3511 C   0  0  2  0  0  0  0  0  0  0  0  0
    3.5257    1.7274    1.6777 H   0  0  0  0  0  0  0  0  0  0  0  0
    2.0796    1.4761    3.2558 C   0  0  0  0  0  0  0  0  0  0  0  0
    1.2430    1.8640    2.6428 H   0  0  0  0  0  0  0  0  0  0  0  0
    2.4710    2.3117    3.8699 H   0  0  0  0  0  0  0  0  0  0  0  0
    1.6876    0.6890    3.9314 H   0  0  0  0  0  0  0  0  0  0  0  0
   -5.9316    0.4772    0.0399 C   0  0  0  0  0  0  0  0  0  0  0  0
   -5.6007    0.9769    0.9723 H   0  0  0  0  0  0  0  0  0  0  0  0
   -5.6063    1.0866   -0.8268 H   0  0  0  0  0  0  0  0  0  0  0  0
   -7.4231    0.2639    0.0319 C   0  0  0  0  0  0  0  0  0  0  0  0
   -8.1344    0.2275   -1.1840 C   0  0  0  0  0  0  0  0  0  0  0  0
   -7.5935    0.3785   -2.1315 H   0  0  0  0  0  0  0  0  0  0  0  0
   -9.5187    0.0039   -1.1936 C   0  0  0  0  0  0  0  0  0  0  0  0
  -10.0630   -0.0156   -2.1499 H   0  0  0  0  0  0  0  0  0  0  0  0
  -10.2081   -0.1935    0.0134 C   0  0  0  0  0  0  0  0  0  0  0  0
  -11.2947   -0.3676    0.0065 H   0  0  0  0  0  0  0  0  0  0  0  0
   -9.5066   -0.1671    1.2294 C   0  0  0  0  0  0  0  0  0  0  0  0
  -10.0415   -0.3213    2.1788 H   0  0  0  0  0  0  0  0  0  0  0  0
   -8.1224    0.0567    1.2376 C   0  0  0  0  0  0  0  0  0  0  0  0
   -7.5720    0.0730    2.1915 H   0  0  0  0  0  0  0  0  0  0  0  0
  1 14  1  0  0  0  0
  1 60  1  0  0  0  0
  3 29  1  0  0  0  0
  4 51  1  0  0  0  0
  5 39  2  0  0  0  0
  6 17  1  0  0  0  0
  7 18  1  0  0  0  0
  9 50  1  0  0  0  0
  9 54  1  0  0  0  0
 10 40  1  0  0  0  0
 11 39  1  1  0  0  0
 11  6  1  0  0  0  0
 12 11  1  0  0  0  0
 12 14  2  0  0  0  0
 13 12  1  0  0  0  0
 14 15  1  0  0  0  0
 15 16  1  0  0  0  0
 17 15  2  0  0  0  0
 17 18  1  0  0  0  0
 18  2  2  0  0  0  0
 19  7  1  0  0  0  0
 19 20  1  0  0  0  0
 20 21  1  0  0  0  0
 22 20  2  0  0  0  0
 22 23  1  0  0  0  0
 24 22  1  0  0  0  0
 25 24  1  0  0  0  0
 26 28  1  0  0  0  0
 26 24  2  0  0  0  0
 27 26  1  0  0  0  0
 28 19  2  0  0  0  0
 29  8  1  0  0  0  0
 29 28  1  1  0  0  0
 30 31  1  0  0  0  0
 30  3  1  0  0  0  0
 30 33  1  0  0  0  0
 32 30  1  0  0  0  0
 33 34  1  1  0  0  0
 33  8  1  0  0  0  0
 35 36  1  0  0  0  0
 35 33  1  0  0  0  0
 37 35  1  0  0  0  0
 38 35  1  0  0  0  0
 39 10  1  0  0  0  0
 40 49  1  0  0  0  0
 41 43  1  0  0  0  0
 41 40  2  0  0  0  0
 42 41  1  0  0  0  0
 43 45  2  0  0  0  0
 44 43  1  0  0  0  0
 45 46  1  0  0  0  0
 45 47  1  0  0  0  0
 47 48  1  0  0  0  0
 49 47  2  0  0  0  0
 50 49  1  6  0  0  0
 50  4  1  0  0  0  0
 51 53  1  0  0  0  0
 52 51  1  0  0  0  0
 54 55  1  6  0  0  0
 54 51  1  0  0  0  0
 54 56  1  0  0  0  0
 56 58  1  0  0  0  0
 56 59  1  0  0  0  0
 57 56  1  0  0  0  0
 60 61  1  0  0  0  0
 62 60  1  0  0  0  0
 63 60  1  0  0  0  0
 63 72  1  0  0  0  0
 64 63  2  0  0  0  0
 65 64  1  0  0  0  0
 66 64  1  0  0  0  0
 66 68  2  0  0  0  0
 67 66  1  0  0  0  0
 68 70  1  0  0  0  0
 69 68  1  0  0  0  0
 70 72  2  0  0  0  0
 70 71  1  0  0  0  0
 72 73  1  0  0  0  0
M  END
