43,44,45,46,59
q = -2.0, confidence = 0.886

 77 85  0  0  1  0  0  0  0  0999 V2000
    4.8174   -2.2910    1.3508 F   0  0  0  0  0  0  0  0  0  0  0  0
    7.5166   -2.5619    1.2418 F   0  0  0  0  0  0  0  0  0  0  0  0
    8.9256   -1.4561   -0.8304 F   0  0  0  0  0  0  0  0  0  0  0  0
    7.6161   -0.0823   -2.8031 F   0  0  0  0  0  0  0  0  0  0  0  0
    4.9145    0.1752   -2.7208 F   0  0  0  0  0  0  0  0  0  0  0  0
    0.6579    4.4272   -1.9415 F   0  0  0  0  0  0  0  0  0  0  0  0
    0.5739    7.1159   -1.5853 F   0  0  0  0  0  0  0  0  0  0  0  0
   -0.2996    8.1602    0.7906 F   0  0  0  0  0  0  0  0  0  0  0  0
   -1.0808    6.4931    2.8183 F   0  0  0  0  0  0  0  0  0  0  0  0
   -0.9803    3.8021    2.4828 F   0  0  0  0  0  0  0  0  0  0  0  0
   -5.0618   -2.7789    1.3477 F   0  0  0  0  0  0  0  0  0  0  0  0
   -7.7300   -3.0999    0.9587 F   0  0  0  0  0  0  0  0  0  0  0  0
   -8.9994   -1.7275   -1.0429 F   0  0  0  0  0  0  0  0  0  0  0  0
   -7.5798   -0.0433   -2.6675 F   0  0  0  0  0  0  0  0  0  0  0  0
   -4.9105    0.2595   -2.3185 F   0  0  0  0  0  0  0  0  0  0  0  0
   -0.7249   -3.5558   -0.5718 C   0  0  1  0  0  3  0  0  0  0  0  0
   -1.7069   -4.1771   -1.3592 C   0  0  0  0  0  0  0  0  0  0  0  0
   -1.5201   -4.9927   -2.0685 H   0  0  0  0  0  0  0  0  0  0  0  0
   -2.9030   -3.4177   -1.2761 C   0  0  0  0  0  0  0  0  0  0  0  0
   -3.7957   -3.5628   -1.8963 H   0  0  0  0  0  0  0  0  0  0  0  0
   -2.6771   -2.3060   -0.4381 C   0  0  2  0  0  3  0  0  0  0  0  0
   -3.4301   -1.1099   -0.2410 C   0  0  1  0  0  3  0  0  0  0  0  0
   -2.8647    0.1817   -0.0067 C   0  0  0  0  0  0  0  0  0  0  0  0
   -3.5962    1.4295    0.1285 C   0  0  0  0  0  3  0  0  0  0  0  0
   -4.6868    1.5292    0.1589 H   0  0  0  0  0  0  0  0  0  0  0  0
   -2.6688    2.4473    0.1858 C   0  0  0  0  0  0  0  0  0  0  0  0
   -2.8749    3.5214    0.2510 H   0  0  0  0  0  0  0  0  0  0  0  0
   -1.3493    1.8425    0.1030 C   0  0  0  0  0  0  0  0  0  0  0  0
   -0.1030    2.5429    0.0717 C   0  0  1  0  0  3  0  0  0  0  0  0
    1.1967    1.9731   -0.1236 C   0  0  0  0  0  0  0  0  0  0  0  0
    2.4947    2.6301   -0.1179 C   0  0  0  0  0  3  0  0  0  0  0  0
    2.6753    3.7021    0.0208 H   0  0  0  0  0  0  0  0  0  0  0  0
    3.4491    1.6469   -0.3089 C   0  0  0  0  0  0  0  0  0  0  0  0
    4.5349    1.7884   -0.3583 H   0  0  0  0  0  0  0  0  0  0  0  0
    2.7467    0.3798   -0.4383 C   0  0  0  0  0  0  0  0  0  0  0  0
    3.2926   -0.9275   -0.6195 C   0  0  2  0  0  3  0  0  0  0  0  0
    2.5321   -2.1384   -0.6966 C   0  0  0  0  0  0  0  0  0  0  0  0
    2.9547   -3.4947   -0.9960 C   0  0  0  0  0  0  0  0  0  0  0  0
    3.9823   -3.8168   -1.2043 H   0  0  0  0  0  0  0  0  0  0  0  0
    1.8146   -4.2959   -1.0044 C   0  0  0  0  0  0  0  0  0  0  0  0
    1.7680   -5.3752   -1.1912 H   0  0  0  0  0  0  0  0  0  0  0  0
    0.7044   -3.4337   -0.6837 C   0  0  0  0  0  0  0  0  0  0  0  0
   -1.3775   -2.4760    0.1377 N   0  0  0  0  0  0  0  0  0  0  0  0
   -1.5185    0.4763    0.0105 N   0  0  0  0  0  0  0  0  0  0  0  0
    1.4014    0.6388   -0.3273 N   0  0  0  0  0  0  0  0  0  0  0  0
    1.1776   -2.1629   -0.5274 N   0  0  0  0  0  2  0  0  0  0  0  0
   -1.4719   -2.6533    1.6210 C   0  0  0  0  0  0  0  0  0  0  0  0
   -2.1707   -1.8681    1.9790 H   0  0  0  0  0  0  0  0  0  0  0  0
   -1.9309   -3.6389    1.8457 H   0  0  0  0  0  0  0  0  0  0  0  0
   -0.1589   -2.4947    2.3482 C   0  0  2  0  0  3  0  0  0  0  0  0
    0.3446   -3.4466    3.2453 C   0  0  0  0  0  0  0  0  0  0  0  0
   -0.2106   -4.3778    3.4288 H   0  0  0  0  0  0  0  0  0  0  0  0
    1.5712   -3.1940    3.8797 C   0  0  0  0  0  0  0  0  0  0  0  0
    1.9954   -3.9308    4.5781 H   0  0  0  0  0  0  0  0  0  0  0  0
    2.2568   -2.0047    3.5973 C   0  0  0  0  0  0  0  0  0  0  0  0
    3.2311   -1.7813    4.0538 H   0  0  0  0  0  0  0  0  0  0  0  0
    1.6850   -1.1050    2.6879 C   0  0  0  0  0  0  0  0  0  0  0  0
    2.1914   -0.1686    2.4024 H   0  0  0  0  0  0  0  0  0  0  0  0
    0.5065   -1.3476    2.0923 N   0  0  0  0  0  2  0  0  0  0  0  0
    4.7724   -1.0571   -0.6897 C   0  0  0  0  0  0  0  0  0  0  0  0
    5.4773   -1.7579    0.3105 C   0  0  0  0  0  0  0  0  0  0  0  0
    6.8731   -1.9006    0.2742 C   0  0  0  0  0  0  0  0  0  0  0  0
    7.5984   -1.3284   -0.7851 C   0  0  0  0  0  0  0  0  0  0  0  0
    6.9248   -0.6193   -1.7942 C   0  0  0  0  0  0  0  0  0  0  0  0
    5.5266   -0.4922   -1.7374 C   0  0  0  0  0  0  0  0  0  0  0  0
   -0.1602    4.0199    0.2571 C   0  0  0  0  0  0  0  0  0  0  0  0
    0.2380    4.9056   -0.7651 C   0  0  0  0  0  0  0  0  0  0  0  0
    0.1974    6.2995   -0.5966 C   0  0  0  0  0  0  0  0  0  0  0  0
   -0.2546    6.8375    0.6203 C   0  0  0  0  0  0  0  0  0  0  0  0
   -0.6599    5.9805    1.6576 C   0  0  0  0  0  0  0  0  0  0  0  0
   -0.6047    4.5903    1.4674 C   0  0  0  0  0  0  0  0  0  0  0  0
   -4.8932   -1.2317   -0.4573 C   0  0  0  0  0  0  0  0  0  0  0  0
   -5.6541   -2.1046    0.3506 C   0  0  0  0  0  0  0  0  0  0  0  0
   -7.0338   -2.2790    0.1667 C   0  0  0  0  0  0  0  0  0  0  0  0
   -7.6879   -1.5716   -0.8571 C   0  0  0  0  0  0  0  0  0  0  0  0
   -6.9586   -0.7001   -1.6840 C   0  0  0  0  0  0  0  0  0  0  0  0
   -5.5765   -0.5459   -1.4843 C   0  0  0  0  0  0  0  0  0  0  0  0
  3 63  1  0  0  0  0
  4 64  1  0  0  0  0
  5 65  1  0  0  0  0
  6 67  1  0  0  0  0
  7 68  1  0  0  0  0
 13 75  1  0  0  0  0
 14 76  1  0  0  0  0
 15 77  1  0  0  0  0
 16 17  1  6  0  0  0
 16 43  1  0  0  0  0
 17 19  2  0  0  0  0
 18 17  1  0  0  0  0
 20 19  1  0  0  0  0
 21 19  1  6  0  0  0
 21 22  1  0  0  0  0
 21 43  1  0  0  0  0
 22 72  1  6  0  0  0
 22 23  1  0  0  0  0
 23 44  2  0  0  0  0
 23 24  1  0  0  0  0
 24 25  1  0  0  0  0
 24 26  1  0  0  0  0
 26 27  1  0  0  0  0
 28 26  2  0  0  0  0
 29 28  1  0  0  0  0
 29 66  1  6  0  0  0
 30 31  1  0  0  0  0
 30 29  1  0  0  0  0
 31 32  1  0  0  0  0
 33 31  1  0  0  0  0
 34 33  1  0  0  0  0
 35 45  1  0  0  0  0
 35 33  2  0  0  0  0
 36 60  1  1  0  0  0
 36 35  1  0  0  0  0
 37 36  1  0  0  0  0
 37 46  1  0  0  0  0
 38 37  2  0  0  0  0
 39 38  1  0  0  0  0
 40 38  1  0  0  0  0
 40 42  2  0  0  0  0
 41 40  1  0  0  0  0
 42 16  1  0  0  0  0
 42 46  1  0  0  0  0
 43 47  1  0  0  0  0
 44 28  1  0  0  0  0
 45 30  2  0  0  0  0
 47 49  1  0  0  0  0
 47 48  1  0  0  0  0
 50 47  1  1  0  0  0
 50 51  1  0  0  0  0
 51 52  1  0  0  0  0
 51 53  2  0  0  0  0
 53 54  1  0  0  0  0
 55 53  1  0  0  0  0
 55 56  1  0  0  0  0
 57 55  2  0  0  0  0
 58 57  1  0  0  0  0
 59 50  1  0  0  0  0
 59 57  1  0  0  0  0
 60 61  1  0  0  0  0
 61  1  1  0  0  0  0
 62 61  2  0  0  0  0
 62  2  1  0  0  0  0
 63 62  1  0  0  0  0
 64 65  1  0  0  0  0
 64 63  2  0  0  0  0
 65 60  2  0  0  0  0
 66 71  1  0  0  0  0
 67 68  1  0  0  0  0
 67 66  2  0  0  0  0
 68 69  2  0  0  0  0
 69  8  1  0  0  0  0
 69 70  1  0  0  0  0
 70  9  1  0  0  0  0
 71 70  2  0  0  0  0
 71 10  1  0  0  0  0
 72 73  1  0  0  0  0
 73 11  1  0  0  0  0
 74 73  2  0  0  0  0
 74 12  1  0  0  0  0
 75 74  1  0  0  0  0
 76 77  1  0  0  0  0
 76 75  2  0  0  0  0
 77 72  2  0  0  0  0
M  END
