1,2,4,5,7
q = 0.0, confidence = 0.988

 45 47  0  0  1  0  0  0  0  0999 V2000
   -2.0166   -0.6995   -0.4957 N   0  0  0  0  0  2  0  0  0  0  0  0
   -0.8434   -0.5101    2.0185 N   0  0  0  0  0  0  0  0  0  0  0  0
   -0.1991   -0.9107    2.7075 H   0  0  0  0  0  0  0  0  0  0  0  0
   -0.2242    1.4993    0.2602 N   0  0  0  0  0  2  0  0  0  0  0  0
    0.9581    0.2894   -1.9039 N   0  0  0  0  0  0  0  0  0  0  0  0
    0.3317   -0.0094   -2.6598 H   0  0  0  0  0  0  0  0  0  0  0  0
    2.3761   -0.2419    0.3776 N   0  0  0  0  0  2  0  0  0  0  0  0
   -2.6333   -0.4989   -1.6715 C   0  0  0  0  0  3  0  0  0  0  0  0
   -2.0135   -0.1031   -2.4939 H   0  0  0  0  0  0  0  0  0  0  0  0
   -3.9925   -0.7660   -1.8726 C   0  0  0  0  0  0  0  0  0  0  0  0
   -4.4538   -0.5919   -2.8549 H   0  0  0  0  0  0  0  0  0  0  0  0
   -4.7393   -1.2513   -0.7889 C   0  0  0  0  0  0  0  0  0  0  0  0
   -5.8120   -1.4689   -0.9002 H   0  0  0  0  0  0  0  0  0  0  0  0
   -4.0991   -1.4514    0.4412 C   0  0  0  0  0  0  0  0  0  0  0  0
   -4.6544   -1.8272    1.3133 H   0  0  0  0  0  0  0  0  0  0  0  0
   -2.7264   -1.1733    0.5489 C   0  0  0  0  0  0  0  0  0  0  0  0
   -1.9512   -1.4584    1.8163 C   0  0  0  0  0  0  0  0  0  0  0  0
   -2.6436   -1.4992    2.6864 H   0  0  0  0  0  0  0  0  0  0  0  0
   -1.4802   -2.4593    1.6864 H   0  0  0  0  0  0  0  0  0  0  0  0
   -1.2194    0.8622    2.3917 C   0  0  0  0  0  0  0  0  0  0  0  0
   -2.2676    0.9130    2.7590 H   0  0  0  0  0  0  0  0  0  0  0  0
   -0.5847    1.1924    3.2421 H   0  0  0  0  0  0  0  0  0  0  0  0
   -1.0293    1.8727    1.2637 C   0  0  1  0  0  3  0  0  0  0  0  0
   -1.6195    3.1469    1.2743 C   0  0  0  0  0  0  0  0  0  0  0  0
   -2.2827    3.4509    2.0977 H   0  0  0  0  0  0  0  0  0  0  0  0
   -1.3526    4.0143    0.2048 C   0  0  0  0  0  0  0  0  0  0  0  0
   -1.8101    5.0146    0.1786 H   0  0  0  0  0  0  0  0  0  0  0  0
   -0.5122    3.5976   -0.8403 C   0  0  0  0  0  0  0  0  0  0  0  0
   -0.2984    4.2587   -1.6931 H   0  0  0  0  0  0  0  0  0  0  0  0
    0.0435    2.3112   -0.7757 C   0  0  0  0  0  0  0  0  0  0  0  0
    1.0105    1.7584   -1.8140 C   0  0  0  0  0  0  0  0  0  0  0  0
    0.8423    2.2526   -2.7943 H   0  0  0  0  0  0  0  0  0  0  0  0
    2.0361    2.0475   -1.4964 H   0  0  0  0  0  0  0  0  0  0  0  0
    2.2530   -0.3926   -2.0507 C   0  0  0  0  0  0  0  0  0  0  0  0
    2.0239   -1.4710   -2.2053 H   0  0  0  0  0  0  0  0  0  0  0  0
    2.8470   -0.0295   -2.9186 H   0  0  0  0  0  0  0  0  0  0  0  0
    3.0708   -0.2910   -0.7788 C   0  0  2  0  0  3  0  0  0  0  0  0
    4.4746   -0.3064   -0.7936 C   0  0  0  0  0  0  0  0  0  0  0  0
    5.0148   -0.3333   -1.7516 H   0  0  0  0  0  0  0  0  0  0  0  0
    5.1671   -0.2954    0.4246 C   0  0  0  0  0  0  0  0  0  0  0  0
    6.2669   -0.3152    0.4395 H   0  0  0  0  0  0  0  0  0  0  0  0
    4.4373   -0.2545    1.6220 C   0  0  0  0  0  0  0  0  0  0  0  0
    4.9402   -0.2425    2.5992 H   0  0  0  0  0  0  0  0  0  0  0  0
    3.0403   -0.2234    1.5453 C   0  0  0  0  0  0  0  0  0  0  0  0
    2.4259   -0.1830    2.4604 H   0  0  0  0  0  0  0  0  0  0  0  0
  1 16  1  0  0  0  0
  2 20  1  0  0  0  0
  2  3  1  0  0  0  0
  4 23  1  0  0  0  0
  5 31  1  0  0  0  0
  6  5  1  0  0  0  0
  7 44  1  0  0  0  0
  8  1  1  0  0  0  0
  9  8  1  0  0  0  0
 10  8  1  0  0  0  0
 10 12  2  0  0  0  0
 11 10  1  0  0  0  0
 12 14  1  0  0  0  0
 13 12  1  0  0  0  0
 14 16  2  0  0  0  0
 14 15  1  0  0  0  0
 16 17  1  0  0  0  0
 17  2  1  0  0  0  0
 17 18  1  0  0  0  0
 19 17  1  0  0  0  0
 20 21  1  0  0  0  0
 20 22  1  0  0  0  0
 23 24  1  0  0  0  0
 23 20  1  1  0  0  0
 24 25  1  0  0  0  0
 26 24  2  0  0  0  0
 27 26  1  0  0  0  0
 28 30  2  0  0  0  0
 28 26  1  0  0  0  0
 29 28  1  0  0  0  0
 30  4  1  0  0  0  0
 31 33  1  0  0  0  0
 31 30  1  0  0  0  0
 32 31  1  0  0  0  0
 34  5  1  0  0  0  0
 35 34  1  0  0  0  0
 36 34  1  0  0  0  0
 37 34  1  1  0  0  0
 37  7  1  0  0  0  0
 38 37  1  0  0  0  0
 38 40  2  0  0  0  0
 39 38  1  0  0  0  0
 40 41  1  0  0  0  0
 40 42  1  0  0  0  0
 42 43  1  0  0  0  0
 44 42  2  0  0  0  0
 44 45  1  0  0  0  0
M  END
