1,2,3,4,5
q = 0.0, confidence = 0.956

 61 66  0  0  1  0  0  0  0  0999 V2000
   -0.8202   -2.4011    0.7592 N   0  0  0  0  0  0  0  0  0  0  0  0
   -1.7883   -1.0147   -1.1991 N   0  0  0  0  0  2  0  0  0  0  0  0
    0.9940   -1.4193   -1.0211 N   0  0  0  0  0  2  0  0  0  0  0  0
    0.9792   -0.5561    1.5977 N   0  0  0  0  0  2  0  0  0  0  0  0
   -1.8518   -0.1215    1.3663 N   0  0  0  0  0  2  0  0  0  0  0  0
    1.0262   -2.7524   -0.8286 C   0  0  0  0  0  0  0  0  0  0  0  0
   -2.6500   -1.9690   -0.7416 C   0  0  2  0  0  3  0  0  0  0  0  0
   -2.9232   -1.0617   -3.3145 C   0  0  0  0  0  0  0  0  0  0  0  0
   -2.9987   -0.6648   -4.3365 H   0  0  0  0  0  0  0  0  0  0  0  0
    1.9479    0.5385   -2.1243 C   0  0  0  0  0  0  0  0  0  0  0  0
    1.0762    1.1296   -1.8310 H   0  0  0  0  0  0  0  0  0  0  0  0
   -3.6775   -2.4967   -1.5243 C   0  0  0  0  0  0  0  0  0  0  0  0
   -4.3454   -3.2663   -1.1113 H   0  0  0  0  0  0  0  0  0  0  0  0
   -1.9138   -0.5791   -2.4741 C   0  0  0  0  0  0  0  0  0  0  0  0
   -1.2118    0.1968   -2.8107 H   0  0  0  0  0  0  0  0  0  0  0  0
    1.8807   -2.0395    3.3080 C   0  0  0  0  0  0  0  0  0  0  0  0
    1.7606   -2.9794    3.8653 H   0  0  0  0  0  0  0  0  0  0  0  0
   -0.1949   -3.3595   -0.1831 C   0  0  0  0  0  0  0  0  0  0  0  0
    0.0434   -4.3201    0.3183 H   0  0  0  0  0  0  0  0  0  0  0  0
   -0.9286   -3.5887   -0.9843 H   0  0  0  0  0  0  0  0  0  0  0  0
    0.9165   -1.6789    2.3384 C   0  0  0  0  0  0  0  0  0  0  0  0
    2.0091   -0.8337   -1.7614 C   0  0  0  0  0  0  0  0  0  0  0  0
   -0.2985   -2.5447    2.1387 C   0  0  0  0  0  0  0  0  0  0  0  0
   -0.0822   -3.6069    2.3771 H   0  0  0  0  0  0  0  0  0  0  0  0
   -1.0865   -2.2126    2.8462 H   0  0  0  0  0  0  0  0  0  0  0  0
    3.1371   -1.6179   -2.2145 C   0  0  0  0  0  0  0  0  0  0  0  0
    2.9578   -1.2014    3.5328 C   0  0  0  0  0  0  0  0  0  0  0  0
    3.7297   -1.4542    4.2753 H   0  0  0  0  0  0  0  0  0  0  0  0
    3.0662    0.0008    2.7886 C   0  0  0  0  0  0  0  0  0  0  0  0
   -2.3353   -2.3385    0.6885 C   0  0  2  0  0  0  0  0  0  0  0  0
   -2.8327   -3.2788    1.0065 H   0  0  0  0  0  0  0  0  0  0  0  0
    2.0456    0.3078    1.8095 C   0  0  2  0  0  3  0  0  0  0  0  0
    2.1600    1.5191    1.0777 C   0  0  0  0  0  0  0  0  0  0  0  0
    1.3806    1.7680    0.3529 H   0  0  0  0  0  0  0  0  0  0  0  0
    2.0891   -3.5785   -1.2593 C   0  0  0  0  0  0  0  0  0  0  0  0
    2.0565   -4.6569   -1.0487 H   0  0  0  0  0  0  0  0  0  0  0  0
   -2.7222   -1.1545    1.5475 C   0  0  2  0  0  3  0  0  0  0  0  0
    3.2240    2.3820    1.3000 C   0  0  0  0  0  0  0  0  0  0  0  0
    3.2754    3.3192    0.7257 H   0  0  0  0  0  0  0  0  0  0  0  0
   -3.8227   -2.0276   -2.8404 C   0  0  0  0  0  0  0  0  0  0  0  0
   -4.6225   -2.4174   -3.4864 H   0  0  0  0  0  0  0  0  0  0  0  0
    3.1579   -3.0071   -1.9289 C   0  0  0  0  0  0  0  0  0  0  0  0
    4.0136   -3.6169   -2.2561 H   0  0  0  0  0  0  0  0  0  0  0  0
    2.9704    1.1141   -2.8655 C   0  0  0  0  0  0  0  0  0  0  0  0
    2.8892    2.1743   -3.1481 H   0  0  0  0  0  0  0  0  0  0  0  0
    4.1798   -0.9859   -2.9518 C   0  0  0  0  0  3  0  0  0  0  0  0
    5.0362   -1.5954   -3.2777 H   0  0  0  0  0  0  0  0  0  0  0  0
   -3.8236   -1.0673    2.3997 C   0  0  0  0  0  0  0  0  0  0  0  0
   -4.5015   -1.9248    2.5181 H   0  0  0  0  0  0  0  0  0  0  0  0
   -3.1234    1.1893    2.9177 C   0  0  0  0  0  0  0  0  0  0  0  0
   -3.2515    2.1458    3.4434 H   0  0  0  0  0  0  0  0  0  0  0  0
    4.1502    0.9049    2.9826 C   0  0  0  0  0  0  0  0  0  0  0  0
    4.9171    0.6505    3.7297 H   0  0  0  0  0  0  0  0  0  0  0  0
    4.2314    2.0787    2.2515 C   0  0  0  0  0  0  0  0  0  0  0  0
    5.0681    2.7747    2.4102 H   0  0  0  0  0  0  0  0  0  0  0  0
   -2.0413    1.0301    2.0458 C   0  0  0  0  0  0  0  0  0  0  0  0
   -1.3116    1.8277    1.8601 H   0  0  0  0  0  0  0  0  0  0  0  0
    4.1028    0.3602   -3.2693 C   0  0  0  0  0  0  0  0  0  0  0  0
    4.9057    0.8401   -3.8479 H   0  0  0  0  0  0  0  0  0  0  0  0
   -4.0309    0.1345    3.0978 C   0  0  0  0  0  0  0  0  0  0  0  0
   -4.8882    0.2417    3.7779 H   0  0  0  0  0  0  0  0  0  0  0  0
  1 23  1  0  0  0  0
  2  7  1  0  0  0  0
  3  6  1  0  0  0  0
  4 32  1  0  0  0  0
  4 21  1  0  0  0  0
  5 37  1  0  0  0  0
  5 56  1  0  0  0  0
  6 18  1  0  0  0  0
  7 30  1  1  0  0  0
  8 40  1  0  0  0  0
  8 14  2  0  0  0  0
  9  8  1  0  0  0  0
 10 11  1  0  0  0  0
 10 22  2  0  0  0  0
 12 13  1  0  0  0  0
 12  7  1  0  0  0  0
 14  2  1  0  0  0  0
 15 14  1  0  0  0  0
 16 27  1  0  0  0  0
 16 17  1  0  0  0  0
 18 19  1  0  0  0  0
 18  1  1  0  0  0  0
 20 18  1  0  0  0  0
 21 16  2  0  0  0  0
 22  3  1  0  0  0  0
 23 21  1  0  0  0  0
 23 24  1  0  0  0  0
 23 25  1  0  0  0  0
 26 42  2  0  0  0  0
 26 22  1  0  0  0  0
 27 28  1  0  0  0  0
 29 52  1  0  0  0  0
 29 27  2  0  0  0  0
 30  1  1  0  0  0  0
 30 31  1  1  0  0  0
 32 33  1  1  0  0  0
 32 29  1  0  0  0  0
 33 38  2  0  0  0  0
 34 33  1  0  0  0  0
 35 36  1  0  0  0  0
 35  6  2  0  0  0  0
 37 30  1  6  0  0  0
 37 48  1  0  0  0  0
 38 54  1  0  0  0  0
 39 38  1  0  0  0  0
 40 12  2  0  0  0  0
 41 40  1  0  0  0  0
 42 35  1  0  0  0  0
 43 42  1  0  0  0  0
 44 10  1  0  0  0  0
 45 44  1  0  0  0  0
 46 26  1  0  0  0  0
 47 46  1  0  0  0  0
 48 49  1  0  0  0  0
 48 60  2  0  0  0  0
 50 60  1  0  0  0  0
 50 51  1  0  0  0  0
 52 53  1  0  0  0  0
 54 55  1  0  0  0  0
 54 52  2  0  0  0  0
 56 50  2  0  0  0  0
 57 56  1  0  0  0  0
 58 46  1  0  0  0  0
 58 44  2  0  0  0  0
 59 58  1  0  0  0  0
 60 61  1  0  0  0  0
M  END
