1,2,3,5,8
q = -1.0

 55 58  0  0  1  0  0  0  0  0999 V2000
    0.0181    0.1701    1.1741 N   0  0  0  0  0  2  0  0  0  0  0  0
    0.9060   -1.8118   -0.5099 N   0  0  0  0  0  2  0  0  0  0  0  0
   -1.8027   -1.0336   -0.1258 N   0  0  0  0  0  2  0  0  0  0  0  0
   -1.2845    0.1392    3.2021 O   0  0  0  0  0  0  0  0  0  0  0  0
    1.5890    0.6955   -0.9220 N   0  0  0  0  0  0  0  0  0  0  0  0
   -2.1409    1.9837   -0.6101 C   0  0  0  0  0  3  0  0  0  0  0  0
   -2.8331    1.2156   -0.2420 H   0  0  0  0  0  0  0  0  0  0  0  0
   -0.8934    1.5793   -0.9169 N   0  0  0  0  0  2  0  0  0  0  0  0
    1.2439    0.6772    1.5125 C   0  0  0  0  0  0  0  0  0  0  0  0
    2.0866    1.0441    0.4302 C   0  0  0  0  0  0  0  0  0  0  0  0
    0.0143    2.4815   -1.3759 C   0  0  0  0  0  0  0  0  0  0  0  0
    2.1892   -1.6459   -0.9332 C   0  0  2  0  0  3  0  0  0  0  0  0
    0.5236   -3.0037   -0.0076 C   0  0  0  0  0  0  0  0  0  0  0  0
   -0.5239   -3.0972    0.3075 H   0  0  0  0  0  0  0  0  0  0  0  0
    2.7371   -3.9144   -0.3077 C   0  0  0  0  0  0  0  0  0  0  0  0
    3.4598   -4.7389   -0.2209 H   0  0  0  0  0  0  0  0  0  0  0  0
   -2.7630   -1.5100   -0.9524 C   0  0  0  0  0  3  0  0  0  0  0  0
   -2.5511   -1.4031   -2.0286 H   0  0  0  0  0  0  0  0  0  0  0  0
   -1.9525   -1.1270    1.2237 C   0  0  0  0  0  0  0  0  0  0  0  0
    1.3321    1.8883   -1.7778 C   0  0  0  0  0  0  0  0  0  0  0  0
    1.2315    1.5285   -2.8240 H   0  0  0  0  0  0  0  0  0  0  0  0
    2.1605    2.6216   -1.7146 H   0  0  0  0  0  0  0  0  0  0  0  0
    1.4079   -4.0805    0.1040 C   0  0  0  0  0  0  0  0  0  0  0  0
    1.0491   -5.0342    0.5152 H   0  0  0  0  0  0  0  0  0  0  0  0
   -0.3152    3.8340   -1.5224 C   0  0  0  0  0  0  0  0  0  0  0  0
    0.4459    4.5418   -1.8802 H   0  0  0  0  0  0  0  0  0  0  0  0
   -3.9281   -2.0968   -0.4474 C   0  0  0  0  0  0  0  0  0  0  0  0
   -4.6878   -2.4723   -1.1473 H   0  0  0  0  0  0  0  0  0  0  0  0
   -2.5432    3.3147   -0.7558 C   0  0  0  0  0  0  0  0  0  0  0  0
   -3.5743    3.5995   -0.5041 H   0  0  0  0  0  0  0  0  0  0  0  0
    3.3323    1.6490    0.6320 C   0  0  0  0  0  0  0  0  0  0  0  0
    3.9655    1.9271   -0.2255 H   0  0  0  0  0  0  0  0  0  0  0  0
   -0.8069   -0.5781    2.0686 C   0  0  1  0  0  0  0  0  0  0  0  0
   -0.2674   -1.4360    2.5500 H   0  0  0  0  0  0  0  0  0  0  0  0
    2.4604   -0.3208   -1.5783 C   0  0  0  0  0  0  0  0  0  0  0  0
    3.5302   -0.0375   -1.5248 H   0  0  0  0  0  0  0  0  0  0  0  0
    2.1406   -0.3942   -2.6401 H   0  0  0  0  0  0  0  0  0  0  0  0
   -1.6138    4.2592   -1.2122 C   0  0  0  0  0  0  0  0  0  0  0  0
   -1.8957    5.3164   -1.3239 H   0  0  0  0  0  0  0  0  0  0  0  0
   -4.1020   -2.1926    0.9422 C   0  0  0  0  0  0  0  0  0  0  0  0
   -5.0114   -2.6472    1.3626 H   0  0  0  0  0  0  0  0  0  0  0  0
    1.7228    0.9057    2.8324 C   0  0  0  0  0  0  0  0  0  0  0  0
    1.0851    0.6361    3.6852 H   0  0  0  0  0  0  0  0  0  0  0  0
   -3.0978   -1.7000    1.7874 C   0  0  0  0  0  0  0  0  0  0  0  0
   -3.1800   -1.7365    2.8833 H   0  0  0  0  0  0  0  0  0  0  0  0
    3.1302   -2.6767   -0.8330 C   0  0  0  0  0  0  0  0  0  0  0  0
    4.1618   -2.5020   -1.1699 H   0  0  0  0  0  0  0  0  0  0  0  0
    2.9739    1.4994    3.0257 C   0  0  0  0  0  0  0  0  0  0  0  0
    3.3271    1.6739    4.0534 H   0  0  0  0  0  0  0  0  0  0  0  0
    3.7825    1.8855    1.9394 C   0  0  0  0  0  0  0  0  0  0  0  0
    4.7590    2.3598    2.1089 H   0  0  0  0  0  0  0  0  0  0  0  0
   -1.9350    1.3707    2.9166 C   0  0  0  0  0  0  0  0  0  0  0  0
   -2.8608    1.2255    2.3124 H   0  0  0  0  0  0  0  0  0  0  0  0
   -1.2663    2.0770    2.3793 H   0  0  0  0  0  0  0  0  0  0  0  0
   -2.2185    1.8059    3.8927 H   0  0  0  0  0  0  0  0  0  0  0  0
  1  9  1  0  0  0  0
  1 33  1  0  0  0  0
  2 13  1  0  0  0  0
  3 19  1  0  0  0  0
  5 10  1  0  0  0  0
  6  7  1  0  0  0  0
  8  6  1  0  0  0  0
  9 42  1  0  0  0  0
 10 31  1  0  0  0  0
 10  9  2  0  0  0  0
 11  8  1  0  0  0  0
 12 35  1  6  0  0  0
 12 46  1  0  0  0  0
 12  2  1  0  0  0  0
 13 23  2  0  0  0  0
 13 14  1  0  0  0  0
 15 16  1  0  0  0  0
 15 23  1  0  0  0  0
 17 27  1  0  0  0  0
 17  3  1  0  0  0  0
 18 17  1  0  0  0  0
 19 44  2  0  0  0  0
 19 33  1  0  0  0  0
 20 22  1  0  0  0  0
 20 11  1  0  0  0  0
 20  5  1  0  0  0  0
 21 20  1  0  0  0  0
 23 24  1  0  0  0  0
 25 11  2  0  0  0  0
 25 38  1  0  0  0  0
 26 25  1  0  0  0  0
 27 40  2  0  0  0  0
 28 27  1  0  0  0  0
 29  6  1  0  0  0  0
 29 30  1  0  0  0  0
 31 50  2  0  0  0  0
 32 31  1  0  0  0  0
 33 34  1  1  0  0  0
 33  4  1  0  0  0  0
 35 36  1  0  0  0  0
 35  5  1  0  0  0  0
 37 35  1  0  0  0  0
 38 29  2  0  0  0  0
 39 38  1  0  0  0  0
 40 41  1  0  0  0  0
 40 44  1  0  0  0  0
 42 48  2  0  0  0  0
 42 43  1  0  0  0  0
 44 45  1  0  0  0  0
 46 15  2  0  0  0  0
 47 46  1  0  0  0  0
 48 49  1  0  0  0  0
 50 51  1  0  0  0  0
 50 48  1  0  0  0  0
 52  4  1  0  0  0  0
 52 55  1  0  0  0  0
 53 52  1  0  0  0  0
 54 52  1  0  0  0  0
M  END
