1,2,3,4,5
q = 0.0, confidence = 0.94

 46 48  0  0  1  0  0  0  0  0999 V2000
    0.1346    1.8006   -0.2215 N   0  0  0  0  0  2  0  0  0  0  0  0
   -0.1782    0.1959    1.6771 N   0  0  0  0  0  2  0  0  0  0  0  0
   -0.0900   -2.0735    0.2674 N   0  0  0  0  0  0  0  0  0  0  0  0
   -1.9520   -0.2382   -0.2750 N   0  0  0  0  0  2  0  0  0  0  0  0
    1.9234   -0.4435   -0.1262 N   0  0  0  0  0  2  0  0  0  0  0  0
    0.3022    2.5930   -1.3089 C   0  0  0  0  0  3  0  0  0  0  0  0
    0.3241    2.0687   -2.2770 H   0  0  0  0  0  0  0  0  0  0  0  0
    0.4374    3.9819   -1.2038 C   0  0  0  0  0  0  0  0  0  0  0  0
    0.5719    4.5767   -2.1183 H   0  0  0  0  0  0  0  0  0  0  0  0
    0.3991    4.5923    0.0638 C   0  0  0  0  0  0  0  0  0  0  0  0
    0.5038    5.6821    0.1659 H   0  0  0  0  0  0  0  0  0  0  0  0
    0.2242    3.7860    1.1935 C   0  0  0  0  0  0  0  0  0  0  0  0
    0.1852    4.2175    2.2042 H   0  0  0  0  0  0  0  0  0  0  0  0
    0.0943    2.3941    1.0316 C   0  0  0  0  0  0  0  0  0  0  0  0
   -0.1162    1.4351    2.0972 C   0  0  0  0  0  3  0  0  0  0  0  0
   -0.2497    1.7329    3.1521 H   0  0  0  0  0  0  0  0  0  0  0  0
   -0.5602   -0.9653    2.4610 C   0  0  0  0  0  0  0  0  0  0  0  0
   -1.6717   -1.0241    2.4742 H   0  0  0  0  0  0  0  0  0  0  0  0
   -0.2243   -0.9072    3.5187 H   0  0  0  0  0  0  0  0  0  0  0  0
    0.0419   -2.1857    1.7615 C   0  0  0  0  0  0  0  0  0  0  0  0
    1.1262   -2.2237    1.9844 H   0  0  0  0  0  0  0  0  0  0  0  0
   -0.4076   -3.1344    2.1238 H   0  0  0  0  0  0  0  0  0  0  0  0
   -1.3792   -2.5793   -0.2697 C   0  0  0  0  0  0  0  0  0  0  0  0
   -1.7014   -3.5187    0.2293 H   0  0  0  0  0  0  0  0  0  0  0  0
   -1.2131   -2.8011   -1.3451 H   0  0  0  0  0  0  0  0  0  0  0  0
   -2.4348   -1.5094   -0.2005 C   0  0  2  0  0  3  0  0  0  0  0  0
   -3.8084   -1.7721   -0.1572 C   0  0  0  0  0  0  0  0  0  0  0  0
   -4.1623   -2.8111   -0.0914 H   0  0  0  0  0  0  0  0  0  0  0  0
   -4.7122   -0.7006   -0.2122 C   0  0  0  0  0  0  0  0  0  0  0  0
   -5.7963   -0.8834   -0.1870 H   0  0  0  0  0  0  0  0  0  0  0  0
   -4.2059    0.6032   -0.3020 C   0  0  0  0  0  0  0  0  0  0  0  0
   -4.8739    1.4743   -0.3543 H   0  0  0  0  0  0  0  0  0  0  0  0
   -2.8207    0.7953   -0.3243 C   0  0  0  0  0  0  0  0  0  0  0  0
   -2.3812    1.7997   -0.3931 H   0  0  0  0  0  0  0  0  0  0  0  0
    1.0909   -2.6834   -0.4078 C   0  0  0  0  0  0  0  0  0  0  0  0
    0.8596   -2.7292   -1.4926 H   0  0  0  0  0  0  0  0  0  0  0  0
    1.3015   -3.7116   -0.0410 H   0  0  0  0  0  0  0  0  0  0  0  0
    2.2635   -1.7619   -0.2202 C   0  0  1  0  0  3  0  0  0  0  0  0
    3.5961   -2.1833   -0.1842 C   0  0  0  0  0  0  0  0  0  0  0  0
    3.8288   -3.2555   -0.2565 H   0  0  0  0  0  0  0  0  0  0  0  0
    4.6150   -1.2262   -0.0642 C   0  0  0  0  0  0  0  0  0  0  0  0
    5.6705   -1.5337   -0.0430 H   0  0  0  0  0  0  0  0  0  0  0  0
    4.2578    0.1252    0.0330 C   0  0  0  0  0  0  0  0  0  0  0  0
    5.0183    0.9126    0.1310 H   0  0  0  0  0  0  0  0  0  0  0  0
    2.9044    0.4768    0.0042 C   0  0  0  0  0  0  0  0  0  0  0  0
    2.5873    1.5258    0.0764 H   0  0  0  0  0  0  0  0  0  0  0  0
  1 14  1  0  0  0  0
  2 15  1  0  0  0  0
  2 17  1  0  0  0  0
  3 20  1  0  0  0  0
  4 26  1  0  0  0  0
  5 45  1  0  0  0  0
  6  8  1  0  0  0  0
  6  1  1  0  0  0  0
  7  6  1  0  0  0  0
  8 10  2  0  0  0  0
  9  8  1  0  0  0  0
 10 11  1  0  0  0  0
 10 12  1  0  0  0  0
 12 13  1  0  0  0  0
 14 12  2  0  0  0  0
 14 15  1  0  0  0  0
 15 16  1  0  0  0  0
 17 18  1  0  0  0  0
 17 19  1  0  0  0  0
 20 21  1  0  0  0  0
 20 22  1  0  0  0  0
 20 17  1  0  0  0  0
 23 24  1  0  0  0  0
 23  3  1  0  0  0  0
 25 23  1  0  0  0  0
 26 23  1  6  0  0  0
 26 27  1  0  0  0  0
 27 28  1  0  0  0  0
 29 30  1  0  0  0  0
 29 27  2  0  0  0  0
 31 29  1  0  0  0  0
 32 31  1  0  0  0  0
 33 31  2  0  0  0  0
 33  4  1  0  0  0  0
 34 33  1  0  0  0  0
 35 37  1  0  0  0  0
 35  3  1  0  0  0  0
 36 35  1  0  0  0  0
 38 35  1  6  0  0  0
 38 39  1  0  0  0  0
 38  5  1  0  0  0  0
 39 41  2  0  0  0  0
 40 39  1  0  0  0  0
 41 42  1  0  0  0  0
 41 43  1  0  0  0  0
 43 44  1  0  0  0  0
 45 43  2  0  0  0  0
 45 46  1  0  0  0  0
M  END
