4,6,15,16
q = 0.0, confidence = 1.0

 56 58  0  0  1  0  0  0  0  0999 V2000
    2.8716    2.6167   -0.1109 C   0  0  0  0  0  0  0  0  0  0  0  0
    3.7229    3.2261   -0.4781 H   0  0  0  0  0  0  0  0  0  0  0  0
    2.5587    3.0898    0.8452 H   0  0  0  0  0  0  0  0  0  0  0  0
   -1.7559    0.8711   -0.0768 N   0  0  0  0  0  2  0  0  0  0  0  0
    0.7393   -1.9378    1.2532 N   0  0  1  0  0  0  0  0  0  0  0  0
    2.4878    0.2433    0.7517 N   0  0  2  0  0  0  0  0  0  0  0  0
    2.1993   -2.2030    1.2369 C   0  0  0  0  0  0  0  0  0  0  0  0
    2.5336   -2.4007    2.2816 H   0  0  0  0  0  0  0  0  0  0  0  0
    2.3890   -3.1370    0.6746 H   0  0  0  0  0  0  0  0  0  0  0  0
   -2.8674    0.1321    0.0678 C   0  0  0  0  0  0  0  0  0  0  0  0
   -1.7622    2.2015    0.1113 C   0  0  0  0  0  0  0  0  0  0  0  0
    3.0441   -1.1086    0.5815 C   0  0  0  0  0  0  0  0  0  0  0  0
    3.1009   -1.2882   -0.5118 H   0  0  0  0  0  0  0  0  0  0  0  0
    4.0807   -1.1689    0.9944 H   0  0  0  0  0  0  0  0  0  0  0  0
    0.4829    2.2137   -0.6672 N   0  0  0  0  0  2  0  0  0  0  0  0
   -1.6197   -1.7265   -0.7371 N   0  0  0  0  0  2  0  0  0  0  0  0
   -4.0956    2.1060    0.7377 C   0  0  0  0  0  0  0  0  0  0  0  0
   -5.0230    2.5945    1.0708 H   0  0  0  0  0  0  0  0  0  0  0  0
    0.7695    0.2118    2.5758 C   0  0  0  0  0  0  0  0  0  0  0  0
    0.0855    0.8033    1.9287 H   0  0  0  0  0  0  0  0  0  0  0  0
    0.5948    0.5680    3.6125 H   0  0  0  0  0  0  0  0  0  0  0  0
   -0.4924    2.9360   -0.2279 C   0  0  1  0  0  3  0  0  0  0  0  0
   -2.9329    2.8617    0.5392 C   0  0  0  0  0  0  0  0  0  0  0  0
   -2.9441    3.9467    0.7037 H   0  0  0  0  0  0  0  0  0  0  0  0
    1.7406    2.7508   -1.1466 C   0  0  0  0  0  0  0  0  0  0  0  0
    1.6505    3.8139   -1.4539 H   0  0  0  0  0  0  0  0  0  0  0  0
    2.0105    2.1600   -2.0484 H   0  0  0  0  0  0  0  0  0  0  0  0
    3.4045    1.2031    0.1034 C   0  0  0  0  0  0  0  0  0  0  0  0
    4.3575    1.2599    0.6854 H   0  0  0  0  0  0  0  0  0  0  0  0
    3.6612    0.7703   -0.8853 H   0  0  0  0  0  0  0  0  0  0  0  0
   -4.0760    0.7282    0.4870 C   0  0  0  0  0  0  0  0  0  0  0  0
   -4.9901    0.1329    0.6065 H   0  0  0  0  0  0  0  0  0  0  0  0
    2.2031    0.5636    2.1667 C   0  0  0  0  0  0  0  0  0  0  0  0
    2.9498    0.0737    2.8360 H   0  0  0  0  0  0  0  0  0  0  0  0
    2.3347    1.6531    2.3139 H   0  0  0  0  0  0  0  0  0  0  0  0
    0.0017   -3.2110    1.0568 C   0  0  0  0  0  0  0  0  0  0  0  0
   -1.0230   -3.0785    1.4605 H   0  0  0  0  0  0  0  0  0  0  0  0
    0.4694   -4.0166    1.6688 H   0  0  0  0  0  0  0  0  0  0  0  0
   -2.7612   -1.3291   -0.2849 C   0  0  0  0  0  0  0  0  0  0  0  0
   -0.4921    4.4325   -0.0697 C   0  0  0  0  0  0  0  0  0  0  0  0
   -1.2557    4.9006   -0.7245 H   0  0  0  0  0  0  0  0  0  0  0  0
    0.4864    4.8816   -0.3094 H   0  0  0  0  0  0  0  0  0  0  0  0
   -0.7472    4.7092    0.9734 H   0  0  0  0  0  0  0  0  0  0  0  0
   -4.0012   -2.1658   -0.1129 C   0  0  0  0  0  0  0  0  0  0  0  0
   -4.7998   -1.8180   -0.8006 H   0  0  0  0  0  0  0  0  0  0  0  0
   -4.3983   -2.0741    0.9179 H   0  0  0  0  0  0  0  0  0  0  0  0
   -3.8253   -3.2345   -0.3202 H   0  0  0  0  0  0  0  0  0  0  0  0
    0.3602   -1.2627    2.5125 C   0  0  0  0  0  0  0  0  0  0  0  0
   -0.7426   -1.3221    2.6141 H   0  0  0  0  0  0  0  0  0  0  0  0
    0.7909   -1.8200    3.3802 H   0  0  0  0  0  0  0  0  0  0  0  0
   -1.3198   -3.0818   -1.1410 C   0  0  0  0  0  0  0  0  0  0  0  0
   -1.1181   -3.0589   -2.2339 H   0  0  0  0  0  0  0  0  0  0  0  0
   -2.1693   -3.7781   -0.9739 H   0  0  0  0  0  0  0  0  0  0  0  0
   -0.0570   -3.6058   -0.4246 C   0  0  0  0  0  0  0  0  0  0  0  0
   -0.0397   -4.7081   -0.5361 H   0  0  0  0  0  0  0  0  0  0  0  0
    0.8437   -3.2213   -0.9478 H   0  0  0  0  0  0  0  0  0  0  0  0
  1 28  1  0  0  0  0
  1  3  1  0  0  0  0
  2  1  1  0  0  0  0
  4 10  1  0  0  0  0
  4 11  1  0  0  0  0
  5 36  1  1  0  0  0
  5 48  1  0  0  0  0
  6 28  1  1  0  0  0
  6 33  1  0  0  0  0
  7  5  1  0  0  0  0
  7  8  1  0  0  0  0
  9  7  1  0  0  0  0
 10 31  1  0  0  0  0
 11 23  2  0  0  0  0
 12  6  1  0  0  0  0
 12 14  1  0  0  0  0
 12  7  1  0  0  0  0
 13 12  1  0  0  0  0
 15 22  1  0  0  0  0
 16 39  1  0  0  0  0
 17 18  1  0  0  0  0
 19 21  1  0  0  0  0
 20 19  1  0  0  0  0
 22 40  1  6  0  0  0
 22 11  1  0  0  0  0
 23 24  1  0  0  0  0
 23 17  1  0  0  0  0
 25 15  1  0  0  0  0
 25  1  1  0  0  0  0
 26 25  1  0  0  0  0
 27 25  1  0  0  0  0
 28 29  1  0  0  0  0
 30 28  1  0  0  0  0
 31 32  1  0  0  0  0
 31 17  2  0  0  0  0
 33 35  1  0  0  0  0
 33 19  1  0  0  0  0
 33 34  1  0  0  0  0
 36 37  1  0  0  0  0
 36 38  1  0  0  0  0
 39 44  1  0  0  0  0
 39 10  2  0  0  0  0
 40 43  1  0  0  0  0
 41 40  1  0  0  0  0
 42 40  1  0  0  0  0
 44 46  1  0  0  0  0
 45 44  1  0  0  0  0
 47 44  1  0  0  0  0
 48 19  1  0  0  0  0
 48 49  1  0  0  0  0
 48 50  1  0  0  0  0
 51 53  1  0  0  0  0
 51 16  1  0  0  0  0
 51 54  1  0  0  0  0
 52 51  1  0  0  0  0
 54 36  1  0  0  0  0
 55 54  1  0  0  0  0
 56 54  1  0  0  0  0
M  END
