2,3,4,5,6
q = -1.0

 46 48  0  0  1  0  0  0  0  0999 V2000
    0.0029   -1.0851    3.5809 O   0  0  0  0  0  0  0  0  0  0  0  0
   -0.0002    1.8297   -0.2339 N   0  0  0  0  0  2  0  0  0  0  0  0
    0.0003    0.0520    1.5815 N   0  0  0  0  0  2  0  0  0  0  0  0
   -0.0002   -2.0686    0.0146 N   0  0  0  0  0  0  0  0  0  0  0  0
    1.9302   -0.2799   -0.2759 N   0  0  0  0  0  2  0  0  0  0  0  0
   -1.9306   -0.2800   -0.2751 N   0  0  0  0  0  2  0  0  0  0  0  0
   -0.0009    2.6356   -1.3233 C   0  0  0  0  0  3  0  0  0  0  0  0
   -0.0014    2.1110   -2.2926 H   0  0  0  0  0  0  0  0  0  0  0  0
   -0.0009    4.0267   -1.2003 C   0  0  0  0  0  0  0  0  0  0  0  0
   -0.0014    4.6487   -2.1064 H   0  0  0  0  0  0  0  0  0  0  0  0
   -0.0002    4.5984    0.0825 C   0  0  0  0  0  0  0  0  0  0  0  0
   -0.0002    5.6913    0.2091 H   0  0  0  0  0  0  0  0  0  0  0  0
    0.0005    3.7574    1.2020 C   0  0  0  0  0  0  0  0  0  0  0  0
    0.0011    4.1668    2.2227 H   0  0  0  0  0  0  0  0  0  0  0  0
    0.0005    2.3657    1.0227 C   0  0  0  0  0  0  0  0  0  0  0  0
    0.0014    1.3753    2.1541 C   0  0  0  0  0  0  0  0  0  0  0  0
    0.8865    1.5457    2.8134 H   0  0  0  0  0  0  0  0  0  0  0  0
   -0.8820    1.5463    2.8154 H   0  0  0  0  0  0  0  0  0  0  0  0
    0.0014   -1.0541    2.3507 C   0  0  0  0  0  0  0  0  0  0  0  0
   -0.0000   -2.3342    1.4957 C   0  0  0  0  0  0  0  0  0  0  0  0
    0.8886   -2.9368    1.7686 H   0  0  0  0  0  0  0  0  0  0  0  0
   -0.8898   -2.9349    1.7690 H   0  0  0  0  0  0  0  0  0  0  0  0
    1.2400   -2.5516   -0.6494 C   0  0  0  0  0  0  0  0  0  0  0  0
    1.0506   -2.5317   -1.7439 H   0  0  0  0  0  0  0  0  0  0  0  0
    1.4991   -3.5841   -0.3356 H   0  0  0  0  0  0  0  0  0  0  0  0
    2.3439   -1.5723   -0.3777 C   0  0  1  0  0  3  0  0  0  0  0  0
    3.6996   -1.9117   -0.3077 C   0  0  0  0  0  0  0  0  0  0  0  0
    4.0002   -2.9666   -0.3818 H   0  0  0  0  0  0  0  0  0  0  0  0
    4.6515   -0.8952   -0.1490 C   0  0  0  0  0  0  0  0  0  0  0  0
    5.7226   -1.1383   -0.0939 H   0  0  0  0  0  0  0  0  0  0  0  0
    4.2129    0.4325   -0.0584 C   0  0  0  0  0  0  0  0  0  0  0  0
    4.9214    1.2634    0.0647 H   0  0  0  0  0  0  0  0  0  0  0  0
    2.8415    0.7000   -0.1173 C   0  0  0  0  0  0  0  0  0  0  0  0
    2.4579    1.7260   -0.0409 H   0  0  0  0  0  0  0  0  0  0  0  0
   -1.2405   -2.5516   -0.6491 C   0  0  0  0  0  0  0  0  0  0  0  0
   -1.4995   -3.5842   -0.3354 H   0  0  0  0  0  0  0  0  0  0  0  0
   -1.0514   -2.5316   -1.7437 H   0  0  0  0  0  0  0  0  0  0  0  0
   -2.3443   -1.5723   -0.3770 C   0  0  2  0  0  3  0  0  0  0  0  0
   -3.6999   -1.9118   -0.3066 C   0  0  0  0  0  0  0  0  0  0  0  0
   -4.0006   -2.9667   -0.3808 H   0  0  0  0  0  0  0  0  0  0  0  0
   -4.6518   -0.8953   -0.1473 C   0  0  0  0  0  0  0  0  0  0  0  0
   -5.7230   -1.1384   -0.0919 H   0  0  0  0  0  0  0  0  0  0  0  0
   -4.2132    0.4323   -0.0565 C   0  0  0  0  0  0  0  0  0  0  0  0
   -4.9216    1.2632    0.0670 H   0  0  0  0  0  0  0  0  0  0  0  0
   -2.8418    0.6999   -0.1159 C   0  0  0  0  0  0  0  0  0  0  0  0
   -2.4582    1.7258   -0.0393 H   0  0  0  0  0  0  0  0  0  0  0  0
  2 15  1  0  0  0  0
  3 16  1  0  0  0  0
  3 19  1  0  0  0  0
  4 20  1  0  0  0  0
  5 33  1  0  0  0  0
  6 45  1  0  0  0  0
  7  9  1  0  0  0  0
  7  2  1  0  0  0  0
  8  7  1  0  0  0  0
  9 11  2  0  0  0  0
 10  9  1  0  0  0  0
 11 12  1  0  0  0  0
 11 13  1  0  0  0  0
 13 14  1  0  0  0  0
 15 13  2  0  0  0  0
 15 16  1  0  0  0  0
 16 17  1  0  0  0  0
 16 18  1  0  0  0  0
 19  1  2  0  0  0  0
 20 21  1  0  0  0  0
 20 22  1  0  0  0  0
 20 19  1  0  0  0  0
 23 25  1  0  0  0  0
 23  4  1  0  0  0  0
 24 23  1  0  0  0  0
 26 23  1  6  0  0  0
 26 27  1  0  0  0  0
 26  5  1  0  0  0  0
 27 29  2  0  0  0  0
 28 27  1  0  0  0  0
 29 30  1  0  0  0  0
 29 31  1  0  0  0  0
 31 32  1  0  0  0  0
 33 31  2  0  0  0  0
 33 34  1  0  0  0  0
 35 36  1  0  0  0  0
 35  4  1  0  0  0  0
 37 35  1  0  0  0  0
 38 35  1  6  0  0  0
 38 39  1  0  0  0  0
 38  6  1  0  0  0  0
 39 41  2  0  0  0  0
 40 39  1  0  0  0  0
 41 42  1  0  0  0  0
 41 43  1  0  0  0  0
 43 44  1  0  0  0  0
 45 43  2  0  0  0  0
 45 46  1  0  0  0  0
M  END
