1,3,4,5
q = 0.0, confidence = 0.998

 51 53  0  0  1  0  0  0  0  0999 V2000
   -0.5215   -1.9525    0.0878 N   0  0  0  0  0  0  0  0  0  0  0  0
    0.7330    0.0211    1.8480 N   0  0  1  0  0  0  0  0  0  0  0  0
    1.5889    1.9016   -0.0826 N   0  0  0  0  0  0  0  0  0  0  0  0
    2.0684   -0.9983   -0.4736 N   0  0  1  0  0  0  0  0  0  0  0  0
   -1.9020    0.5007    0.0605 N   0  0  0  0  0  2  0  0  0  0  0  0
   -0.5152   -2.1300    1.5593 C   0  0  0  0  0  0  0  0  0  0  0  0
    0.3019   -2.8296    1.8189 H   0  0  0  0  0  0  0  0  0  0  0  0
   -1.4525   -2.6249    1.8991 H   0  0  0  0  0  0  0  0  0  0  0  0
   -0.3404   -0.8313    2.3717 C   0  0  0  0  0  0  0  0  0  0  0  0
   -1.2744   -0.2397    2.3495 H   0  0  0  0  0  0  0  0  0  0  0  0
   -0.1635   -1.1114    3.4376 H   0  0  0  0  0  0  0  0  0  0  0  0
    0.6205    1.4389    2.2166 C   0  0  0  0  0  0  0  0  0  0  0  0
    0.8638    1.6278    3.2896 H   0  0  0  0  0  0  0  0  0  0  0  0
   -0.4439    1.7172    2.0826 H   0  0  0  0  0  0  0  0  0  0  0  0
    1.5120    2.3438    1.3355 C   0  0  0  0  0  0  0  0  0  0  0  0
    1.1034    3.3727    1.3853 H   0  0  0  0  0  0  0  0  0  0  0  0
    2.5348    2.4148    1.7606 H   0  0  0  0  0  0  0  0  0  0  0  0
    2.9285    1.3401   -0.4483 C   0  0  0  0  0  0  0  0  0  0  0  0
    3.5303    1.2312    0.4740 H   0  0  0  0  0  0  0  0  0  0  0  0
    3.4797    2.0676   -1.0819 H   0  0  0  0  0  0  0  0  0  0  0  0
    2.8757   -0.0005   -1.1943 C   0  0  0  0  0  0  0  0  0  0  0  0
    2.3941    0.1438   -2.1828 H   0  0  0  0  0  0  0  0  0  0  0  0
    3.9219   -0.3502   -1.3629 H   0  0  0  0  0  0  0  0  0  0  0  0
    1.6064   -2.1298   -1.2954 C   0  0  0  0  0  0  0  0  0  0  0  0
    2.4161   -2.8702   -1.4939 H   0  0  0  0  0  0  0  0  0  0  0  0
    1.2795   -1.6990   -2.2618 H   0  0  0  0  0  0  0  0  0  0  0  0
    0.4065   -2.8591   -0.6397 C   0  0  0  0  0  0  0  0  0  0  0  0
   -0.1377   -3.3994   -1.4396 H   0  0  0  0  0  0  0  0  0  0  0  0
    0.7579   -3.6442    0.0605 H   0  0  0  0  0  0  0  0  0  0  0  0
    2.0888   -0.5261    2.0243 C   0  0  0  0  0  0  0  0  0  0  0  0
    2.1534   -1.1234    2.9615 H   0  0  0  0  0  0  0  0  0  0  0  0
    2.7814    0.3214    2.1709 H   0  0  0  0  0  0  0  0  0  0  0  0
    2.5854   -1.4011    0.8421 C   0  0  0  0  0  0  0  0  0  0  0  0
    3.6988   -1.4066    0.8488 H   0  0  0  0  0  0  0  0  0  0  0  0
    2.2880   -2.4507    1.0159 H   0  0  0  0  0  0  0  0  0  0  0  0
   -1.8658   -1.8856   -0.4968 C   0  0  0  0  0  0  0  0  0  0  0  0
   -2.4804   -2.7829   -0.2508 H   0  0  0  0  0  0  0  0  0  0  0  0
   -1.7401   -1.8412   -1.6014 H   0  0  0  0  0  0  0  0  0  0  0  0
   -2.6249   -0.6274   -0.1260 C   0  0  2  0  0  3  0  0  0  0  0  0
   -4.0280   -0.6092   -0.0785 C   0  0  0  0  0  0  0  0  0  0  0  0
   -4.5910   -1.5439   -0.2167 H   0  0  0  0  0  0  0  0  0  0  0  0
   -4.6914    0.6067    0.1305 C   0  0  0  0  0  0  0  0  0  0  0  0
   -5.7904    0.6424    0.1644 H   0  0  0  0  0  0  0  0  0  0  0  0
   -3.9332    1.7760    0.2911 C   0  0  0  0  0  0  0  0  0  0  0  0
   -4.4104    2.7535    0.4480 H   0  0  0  0  0  0  0  0  0  0  0  0
   -2.5394    1.6718    0.2526 C   0  0  0  0  0  0  0  0  0  0  0  0
   -1.9039    2.5637    0.3759 H   0  0  0  0  0  0  0  0  0  0  0  0
    1.1884    2.9638   -1.0306 C   0  0  0  0  0  0  0  0  0  0  0  0
    1.1356    2.5402   -2.0512 H   0  0  0  0  0  0  0  0  0  0  0  0
    1.8925    3.8253   -1.0040 H   0  0  0  0  0  0  0  0  0  0  0  0
    0.1713    3.3228   -0.7816 H   0  0  0  0  0  0  0  0  0  0  0  0
  1  6  1  0  0  0  0
  2 30  1  1  0  0  0
  2 12  1  0  0  0  0
  2  9  1  0  0  0  0
  3 15  1  0  0  0  0
  4 24  1  6  0  0  0
  4 33  1  0  0  0  0
  5 46  1  0  0  0  0
  6  7  1  0  0  0  0
  6  8  1  0  0  0  0
  6  9  1  0  0  0  0
  9 11  1  0  0  0  0
 10  9  1  0  0  0  0
 12 13  1  0  0  0  0
 14 12  1  0  0  0  0
 15 16  1  0  0  0  0
 15 17  1  0  0  0  0
 15 12  1  0  0  0  0
 18  3  1  0  0  0  0
 18 19  1  0  0  0  0
 20 18  1  0  0  0  0
 21  4  1  0  0  0  0
 21 18  1  0  0  0  0
 22 21  1  0  0  0  0
 23 21  1  0  0  0  0
 24 27  1  0  0  0  0
 25 24  1  0  0  0  0
 26 24  1  0  0  0  0
 27 29  1  0  0  0  0
 27  1  1  0  0  0  0
 28 27  1  0  0  0  0
 30 32  1  0  0  0  0
 30 31  1  0  0  0  0
 33 34  1  0  0  0  0
 33 35  1  0  0  0  0
 33 30  1  0  0  0  0
 36 37  1  0  0  0  0
 36  1  1  0  0  0  0
 38 36  1  0  0  0  0
 39 36  1  6  0  0  0
 39 40  1  0  0  0  0
 39  5  1  0  0  0  0
 40 42  2  0  0  0  0
 41 40  1  0  0  0  0
 42 43  1  0  0  0  0
 42 44  1  0  0  0  0
 44 45  1  0  0  0  0
 46 44  2  0  0  0  0
 46 47  1  0  0  0  0
 48 50  1  0  0  0  0
 48 51  1  0  0  0  0
 48  3  1  0  0  0  0
 49 48  1  0  0  0  0
M  END
