15,17,18,19,20
q = -2.0, confidence = 0.842

 52 53  0  0  1  0  0  0  0  0999 V2000
   -3.0432    0.5569   -0.3310 B   0  0  2  0  0  0  0  0  0  0  0  0
    3.0919    0.1202   -0.0560 B   0  0  1  0  0  0  0  0  0  0  0  0
   -1.7760   -0.7440    3.6515 Cl  0  0  0  0  0  0  0  0  0  0  0  0
    1.2620   -2.0200    3.4548 Cl  0  0  0  0  0  0  0  0  0  0  0  0
   -1.8098   -3.0865   -2.5126 Cl  0  0  0  0  0  0  0  0  0  0  0  0
    1.5265   -3.1857   -2.4715 Cl  0  0  0  0  0  0  0  0  0  0  0  0
   -1.3741    4.6329   -0.5565 Cl  0  0  0  0  0  0  0  0  0  0  0  0
    1.9365    4.3626   -0.3515 Cl  0  0  0  0  0  0  0  0  0  0  0  0
   -2.5151    0.2006    1.0526 O   0  0  0  0  0  0  0  0  0  0  0  0
    2.7099   -0.3791    1.3267 O   0  0  0  0  0  0  0  0  0  0  0  0
   -2.6488   -0.5116   -1.3108 O   0  0  0  0  0  0  0  0  0  0  0  0
    2.4947   -0.8139   -1.0794 O   0  0  0  0  0  0  0  0  0  0  0  0
   -2.5053    1.9002   -0.7353 O   0  0  0  0  0  0  0  0  0  0  0  0
    2.6238    1.5246   -0.2868 O   0  0  0  0  0  0  0  0  0  0  0  0
   -1.2000   -0.0468    1.1348 N   0  0  0  0  0  2  0  0  0  0  0  0
    1.4377   -0.0623    1.5667 N   0  0  0  0  0  0  0  0  0  0  0  0
   -1.3170   -0.6758   -1.4107 N   0  0  0  0  0  2  0  0  0  0  0  0
    1.1540   -0.8495   -1.1647 N   0  0  0  0  0  2  0  0  0  0  0  0
   -1.1585    1.9506   -0.7256 N   0  0  0  0  0  2  0  0  0  0  0  0
    1.3014    1.7345   -0.4212 N   0  0  0  0  0  2  0  0  0  0  0  0
   -0.7328   -0.4571    2.2869 C   0  0  2  0  0  3  0  0  0  0  0  0
    0.7072   -0.7086    2.4044 C   0  0  0  0  0  0  0  0  0  0  0  0
   -0.8261   -1.8060   -1.8995 C   0  0  0  0  0  0  0  0  0  0  0  0
    0.6060   -1.8882   -1.8003 C   0  0  0  0  0  0  0  0  0  0  0  0
   -0.5436    3.1206   -0.6059 C   0  0  0  0  0  0  0  0  0  0  0  0
    0.8825    2.9992   -0.4637 C   0  0  0  0  0  0  0  0  0  0  0  0
   -4.6417    0.6182   -0.2492 C   0  0  0  0  0  0  0  0  0  0  0  0
   -4.9286    1.4312    0.4545 H   0  0  0  0  0  0  0  0  0  0  0  0
   -5.0356    0.9210   -1.2454 H   0  0  0  0  0  0  0  0  0  0  0  0
   -5.2778   -0.7055    0.1898 C   0  0  0  0  0  0  0  0  0  0  0  0
   -4.9632   -1.5123   -0.5098 H   0  0  0  0  0  0  0  0  0  0  0  0
   -4.8609   -0.9964    1.1802 H   0  0  0  0  0  0  0  0  0  0  0  0
   -6.8075   -0.6786    0.2742 C   0  0  0  0  0  0  0  0  0  0  0  0
   -7.1197    0.1294    0.9745 H   0  0  0  0  0  0  0  0  0  0  0  0
   -7.2227   -0.3866   -0.7174 H   0  0  0  0  0  0  0  0  0  0  0  0
   -7.4212   -2.0081    0.7171 C   0  0  0  0  0  0  0  0  0  0  0  0
   -8.5292   -1.9636    0.7709 H   0  0  0  0  0  0  0  0  0  0  0  0
   -7.0482   -2.3063    1.7200 H   0  0  0  0  0  0  0  0  0  0  0  0
   -7.1519   -2.8263    0.0159 H   0  0  0  0  0  0  0  0  0  0  0  0
    4.6878    0.0588   -0.2090 C   0  0  0  0  0  0  0  0  0  0  0  0
    4.9629    0.4154   -1.2270 H   0  0  0  0  0  0  0  0  0  0  0  0
    5.1252    0.7911    0.5050 H   0  0  0  0  0  0  0  0  0  0  0  0
    5.2646   -1.3440    0.0254 C   0  0  0  0  0  0  0  0  0  0  0  0
    4.9935   -1.6826    1.0507 H   0  0  0  0  0  0  0  0  0  0  0  0
    4.7578   -2.0546   -0.6629 H   0  0  0  0  0  0  0  0  0  0  0  0
    6.7846   -1.4685   -0.1625 C   0  0  0  0  0  0  0  0  0  0  0  0
    7.0754   -2.5409   -0.0903 H   0  0  0  0  0  0  0  0  0  0  0  0
    7.0490   -1.1533   -1.1981 H   0  0  0  0  0  0  0  0  0  0  0  0
    7.6136   -0.6589    0.8380 C   0  0  0  0  0  0  0  0  0  0  0  0
    8.7039   -0.7983    0.6823 H   0  0  0  0  0  0  0  0  0  0  0  0
    7.3813   -0.9591    1.8822 H   0  0  0  0  0  0  0  0  0  0  0  0
    7.4014    0.4269    0.7573 H   0  0  0  0  0  0  0  0  0  0  0  0
  1 27  1  1  0  0  0
  1  9  1  0  0  0  0
  2 40  1  6  0  0  0
  2 10  1  0  0  0  0
  5 23  1  0  0  0  0
  6 24  1  0  0  0  0
  9 15  1  0  0  0  0
 10 16  1  0  0  0  0
 11  1  1  0  0  0  0
 12  2  1  0  0  0  0
 13 19  1  0  0  0  0
 13  1  1  0  0  0  0
 14  2  1  0  0  0  0
 15 21  1  0  0  0  0
 16 22  2  0  0  0  0
 17 11  1  0  0  0  0
 18 12  1  0  0  0  0
 19 25  1  0  0  0  0
 20 14  1  0  0  0  0
 21 22  1  0  0  0  0
 21  3  1  6  0  0  0
 22  4  1  0  0  0  0
 23 24  2  0  0  0  0
 23 17  1  0  0  0  0
 24 18  1  0  0  0  0
 25  7  1  0  0  0  0
 25 26  2  0  0  0  0
 26 20  1  0  0  0  0
 26  8  1  0  0  0  0
 27 30  1  0  0  0  0
 27 28  1  0  0  0  0
 29 27  1  0  0  0  0
 30 33  1  0  0  0  0
 30 32  1  0  0  0  0
 31 30  1  0  0  0  0
 33 36  1  0  0  0  0
 33 34  1  0  0  0  0
 35 33  1  0  0  0  0
 36 37  1  0  0  0  0
 36 38  1  0  0  0  0
 39 36  1  0  0  0  0
 40 43  1  0  0  0  0
 40 42  1  0  0  0  0
 41 40  1  0  0  0  0
 43 44  1  0  0  0  0
 45 43  1  0  0  0  0
 46 47  1  0  0  0  0
 46 43  1  0  0  0  0
 46 49  1  0  0  0  0
 48 46  1  0  0  0  0
 49 51  1  0  0  0  0
 50 49  1  0  0  0  0
 52 49  1  0  0  0  0
M  END
