1,4,5,12,19
q = 0.0, confidence = 0.972

 55 57  0  0  0  0  0  0  0  0999 V2000
    0.0679    0.7659    1.7634 N   0  0  0  0  0  0  0  0  0  0  0  0
    0.4554   -0.3050    2.7197 C   0  0  0  0  0  0  0  0  0  0  0  0
    0.0559   -1.6641    2.1825 C   0  0  0  0  0  0  0  0  0  0  0  0
    0.5134   -1.8291    0.7692 N   0  0  0  0  0  0  0  0  0  0  0  0
   -0.9839    1.6408   -0.4235 N   0  0  0  0  0  2  0  0  0  0  0  0
   -1.1293    2.2849   -1.6073 C   0  0  0  0  0  3  0  0  0  0  0  0
   -1.8684    3.4683   -1.7139 C   0  0  0  0  0  0  0  0  0  0  0  0
   -2.4683    4.0156   -0.5702 C   0  0  0  0  0  0  0  0  0  0  0  0
   -2.2948    3.3594    0.6619 C   0  0  0  0  0  0  0  0  0  0  0  0
   -1.5537    2.1771    0.7049 C   0  0  0  0  0  0  0  0  0  0  0  0
   -1.2677    1.3814    1.9599 C   0  0  0  0  0  0  0  0  0  0  0  0
    1.6982    0.7512   -0.3261 N   0  0  0  0  0  2  0  0  0  0  0  0
    2.5312    0.5543   -1.3777 C   0  0  0  0  0  3  0  0  0  0  0  0
    3.8622    0.9824   -1.3731 C   0  0  0  0  0  0  0  0  0  0  0  0
    4.3671    1.6545   -0.2535 C   0  0  0  0  0  0  0  0  0  0  0  0
    3.4941    1.9123    0.8150 C   0  0  0  0  0  0  0  0  0  0  0  0
    2.1718    1.4667    0.7369 C   0  0  0  0  0  0  0  0  0  0  0  0
    1.1170    1.8259    1.7391 C   0  0  0  0  0  0  0  0  0  0  0  0
   -1.8391   -0.9775   -0.0247 N   0  0  0  0  0  2  0  0  0  0  0  0
   -3.0788   -0.4569   -0.2150 C   0  0  0  0  0  3  0  0  0  0  0  0
   -4.2274   -1.2422   -0.3357 C   0  0  0  0  0  0  0  0  0  0  0  0
   -4.1176   -2.6372   -0.2590 C   0  0  0  0  0  0  0  0  0  0  0  0
   -2.8415   -3.1863   -0.0754 C   0  0  0  0  0  0  0  0  0  0  0  0
   -1.7323   -2.3405    0.0194 C   0  0  0  0  0  0  0  0  0  0  0  0
   -0.3269   -2.8559    0.1114 C   0  0  0  0  0  0  0  0  0  0  0  0
    1.9563   -2.1860    0.7324 C   0  0  0  0  0  0  0  0  0  0  0  0
    2.5004   -2.5687   -0.6546 C   0  0  0  0  0  0  0  0  0  0  0  0
    3.8829   -2.2926   -0.7470 O   0  0  0  0  0  0  0  0  0  0  0  0
    4.3692   -2.9945   -0.2775 H   0  0  0  0  0  0  0  0  0  0  0  0
    0.0192   -0.1272    3.7268 H   0  0  0  0  0  0  0  0  0  0  0  0
    1.5562   -0.2563    2.8338 H   0  0  0  0  0  0  0  0  0  0  0  0
   -1.0448   -1.7757    2.2044 H   0  0  0  0  0  0  0  0  0  0  0  0
    0.4728   -2.4713    2.8259 H   0  0  0  0  0  0  0  0  0  0  0  0
   -0.6607    1.7861   -2.4695 H   0  0  0  0  0  0  0  0  0  0  0  0
   -1.9706    3.9506   -2.6965 H   0  0  0  0  0  0  0  0  0  0  0  0
   -3.0541    4.9441   -0.6295 H   0  0  0  0  0  0  0  0  0  0  0  0
   -2.7294    3.7646    1.5875 H   0  0  0  0  0  0  0  0  0  0  0  0
   -1.3078    2.0266    2.8671 H   0  0  0  0  0  0  0  0  0  0  0  0
   -2.0085    0.5662    2.0929 H   0  0  0  0  0  0  0  0  0  0  0  0
    2.0813    0.0250   -2.2318 H   0  0  0  0  0  0  0  0  0  0  0  0
    4.4926    0.7678   -2.2468 H   0  0  0  0  0  0  0  0  0  0  0  0
    5.4156    1.9832   -0.2126 H   0  0  0  0  0  0  0  0  0  0  0  0
    3.8289    2.4682    1.7030 H   0  0  0  0  0  0  0  0  0  0  0  0
    1.5298    2.0073    2.7537 H   0  0  0  0  0  0  0  0  0  0  0  0
    0.6438    2.7750    1.4135 H   0  0  0  0  0  0  0  0  0  0  0  0
   -3.1526    0.6355   -0.2863 H   0  0  0  0  0  0  0  0  0  0  0  0
   -5.1981   -0.7511   -0.4921 H   0  0  0  0  0  0  0  0  0  0  0  0
   -5.0027   -3.2835   -0.3466 H   0  0  0  0  0  0  0  0  0  0  0  0
   -2.6935   -4.2746   -0.0200 H   0  0  0  0  0  0  0  0  0  0  0  0
   -0.2795   -3.8350    0.6404 H   0  0  0  0  0  0  0  0  0  0  0  0
    0.0438   -2.9857   -0.9257 H   0  0  0  0  0  0  0  0  0  0  0  0
    2.1447   -3.0066    1.4656 H   0  0  0  0  0  0  0  0  0  0  0  0
    2.5380   -1.3053    1.0678 H   0  0  0  0  0  0  0  0  0  0  0  0
    1.9807   -1.9597   -1.4214 H   0  0  0  0  0  0  0  0  0  0  0  0
    2.2727   -3.6344   -0.8873 H   0  0  0  0  0  0  0  0  0  0  0  0
  1 11  1  0  0  0  0
  1  2  1  0  0  0  0
  2 31  1  0  0  0  0
  2 30  1  0  0  0  0
  3 32  1  0  0  0  0
  3  2  1  0  0  0  0
  3 33  1  0  0  0  0
  4  3  1  0  0  0  0
  5 10  1  0  0  0  0
  6  5  1  0  0  0  0
  7  6  1  0  0  0  0
  7  8  2  0  0  0  0
  8  9  1  0  0  0  0
  9 10  2  0  0  0  0
  9 37  1  0  0  0  0
 10 11  1  0  0  0  0
 11 39  1  0  0  0  0
 11 38  1  0  0  0  0
 12 17  1  0  0  0  0
 13 14  1  0  0  0  0
 13 12  1  0  0  0  0
 14 15  2  0  0  0  0
 15 42  1  0  0  0  0
 15 16  1  0  0  0  0
 16 43  1  0  0  0  0
 17 16  2  0  0  0  0
 17 18  1  0  0  0  0
 18  1  1  0  0  0  0
 18 44  1  0  0  0  0
 19 24  1  0  0  0  0
 20 19  1  0  0  0  0
 21 22  2  0  0  0  0
 21 20  1  0  0  0  0
 22 23  1  0  0  0  0
 23 49  1  0  0  0  0
 23 24  2  0  0  0  0
 24 25  1  0  0  0  0
 25 50  1  0  0  0  0
 25  4  1  0  0  0  0
 26  4  1  0  0  0  0
 26 53  1  0  0  0  0
 26 52  1  0  0  0  0
 27 26  1  0  0  0  0
 28 27  1  0  0  0  0
 28 29  1  0  0  0  0
 34  6  1  0  0  0  0
 35  7  1  0  0  0  0
 36  8  1  0  0  0  0
 40 13  1  0  0  0  0
 41 14  1  0  0  0  0
 45 18  1  0  0  0  0
 46 20  1  0  0  0  0
 47 21  1  0  0  0  0
 48 22  1  0  0  0  0
 51 25  1  0  0  0  0
 54 27  1  0  0  0  0
 55 27  1  0  0  0  0
M  END
