1,2,3,7,8
q = 0.0, confidence = 0.992

 55 58  0  0  1  0  0  0  0  0999 V2000
   -1.3933    1.3162   -0.1847 N   0  0  0  0  0  0  0  0  0  0  0  0
   -0.0783   -0.7890   -1.5992 N   0  0  0  0  0  0  0  0  0  0  0  0
    2.0101   -1.3927    0.1821 N   0  0  0  0  0  2  0  0  0  0  0  0
   -1.8819    1.5183    1.1784 C   0  0  0  0  0  0  0  0  0  0  0  0
   -1.1945    2.2443    1.6666 H   0  0  0  0  0  0  0  0  0  0  0  0
   -2.9013    1.9672    1.2291 H   0  0  0  0  0  0  0  0  0  0  0  0
   -0.6888   -0.4852    1.8568 N   0  0  0  0  0  2  0  0  0  0  0  0
    1.3047    1.9968    0.1686 N   0  0  0  0  0  2  0  0  0  0  0  0
   -2.1611    0.4226   -1.0028 C   0  0  0  0  0  0  0  0  0  0  0  0
   -3.5628    0.5316   -1.0816 C   0  0  0  0  0  0  0  0  0  0  0  0
   -4.0702    1.3362   -0.5290 H   0  0  0  0  0  0  0  0  0  0  0  0
   -4.3197   -0.3625   -1.8498 C   0  0  0  0  0  0  0  0  0  0  0  0
   -5.4133   -0.2556   -1.8983 H   0  0  0  0  0  0  0  0  0  0  0  0
   -3.6746   -1.3856   -2.5594 C   0  0  0  0  0  0  0  0  0  0  0  0
   -4.2565   -2.0911   -3.1705 H   0  0  0  0  0  0  0  0  0  0  0  0
   -2.2803   -1.5076   -2.4904 C   0  0  0  0  0  0  0  0  0  0  0  0
   -1.7817   -2.3119   -3.0510 H   0  0  0  0  0  0  0  0  0  0  0  0
   -1.5074   -0.6237   -1.7128 C   0  0  0  0  0  0  0  0  0  0  0  0
    0.3523   -2.1814   -1.4273 C   0  0  0  0  0  0  0  0  0  0  0  0
   -0.3702   -2.6723   -0.7403 H   0  0  0  0  0  0  0  0  0  0  0  0
    0.3443   -2.7617   -2.3802 H   0  0  0  0  0  0  0  0  0  0  0  0
    1.7345   -2.2752   -0.8108 C   0  0  2  0  0  3  0  0  0  0  0  0
    3.1946   -1.4906    0.8256 C   0  0  0  0  0  0  0  0  0  0  0  0
    3.3681   -0.7685    1.6401 H   0  0  0  0  0  0  0  0  0  0  0  0
    4.1591   -2.4520    0.5036 C   0  0  0  0  0  0  0  0  0  0  0  0
    5.1065   -2.4886    1.0600 H   0  0  0  0  0  0  0  0  0  0  0  0
    3.8866   -3.3518   -0.5369 C   0  0  0  0  0  0  0  0  0  0  0  0
    4.6223   -4.1161   -0.8277 H   0  0  0  0  0  0  0  0  0  0  0  0
    2.6554   -3.2578   -1.2021 C   0  0  0  0  0  0  0  0  0  0  0  0
    2.4023   -3.9456   -2.0227 H   0  0  0  0  0  0  0  0  0  0  0  0
    0.6813   -0.1233   -2.6680 C   0  0  0  0  0  0  0  0  0  0  0  0
    0.5078   -0.5978   -3.6625 H   0  0  0  0  0  0  0  0  0  0  0  0
    0.3909    0.9398   -2.7388 H   0  0  0  0  0  0  0  0  0  0  0  0
    1.7639   -0.1662   -2.4358 H   0  0  0  0  0  0  0  0  0  0  0  0
   -1.8372    0.2289    1.9692 C   0  0  1  0  0  3  0  0  0  0  0  0
   -0.5628   -1.6305    2.5598 C   0  0  0  0  0  0  0  0  0  0  0  0
    0.3878   -2.1737    2.4318 H   0  0  0  0  0  0  0  0  0  0  0  0
   -1.5683   -2.1160    3.4032 C   0  0  0  0  0  0  0  0  0  0  0  0
   -1.4176   -3.0554    3.9540 H   0  0  0  0  0  0  0  0  0  0  0  0
   -2.7586   -1.3837    3.5198 C   0  0  0  0  0  0  0  0  0  0  0  0
   -3.5752   -1.7363    4.1669 H   0  0  0  0  0  0  0  0  0  0  0  0
   -2.8925   -0.1947    2.7877 C   0  0  0  0  0  0  0  0  0  0  0  0
   -3.8119    0.4064    2.8465 H   0  0  0  0  0  0  0  0  0  0  0  0
   -0.8937    2.5226   -0.8272 C   0  0  0  0  0  0  0  0  0  0  0  0
   -0.8400    2.3309   -1.9193 H   0  0  0  0  0  0  0  0  0  0  0  0
   -1.5962    3.3845   -0.7179 H   0  0  0  0  0  0  0  0  0  0  0  0
    0.4863    2.9482   -0.3482 C   0  0  2  0  0  3  0  0  0  0  0  0
    2.5609    2.3545    0.5283 C   0  0  0  0  0  0  0  0  0  0  0  0
    3.1956    1.5529    0.9370 H   0  0  0  0  0  0  0  0  0  0  0  0
    3.0534    3.6548    0.3967 C   0  0  0  0  0  0  0  0  0  0  0  0
    4.0833    3.8852    0.7042 H   0  0  0  0  0  0  0  0  0  0  0  0
    2.2049    4.6443   -0.1235 C   0  0  0  0  0  0  0  0  0  0  0  0
    2.5500    5.6827   -0.2348 H   0  0  0  0  0  0  0  0  0  0  0  0
    0.9044    4.2807   -0.4937 C   0  0  0  0  0  0  0  0  0  0  0  0
    0.2040    5.0264   -0.8996 H   0  0  0  0  0  0  0  0  0  0  0  0
  1  4  1  0  0  0  0
  2 19  1  0  0  0  0
  3 23  1  0  0  0  0
  4  6  1  0  0  0  0
  4  5  1  0  0  0  0
  7 35  1  0  0  0  0
  7 36  1  0  0  0  0
  8 48  1  0  0  0  0
  9  1  1  0  0  0  0
 10  9  1  0  0  0  0
 10 11  1  0  0  0  0
 12 10  2  0  0  0  0
 13 12  1  0  0  0  0
 14 16  2  0  0  0  0
 14 12  1  0  0  0  0
 15 14  1  0  0  0  0
 16 18  1  0  0  0  0
 17 16  1  0  0  0  0
 18  2  1  0  0  0  0
 18  9  2  0  0  0  0
 19 20  1  0  0  0  0
 21 19  1  0  0  0  0
 22 19  1  1  0  0  0
 22  3  1  0  0  0  0
 23 24  1  0  0  0  0
 25 23  2  0  0  0  0
 25 26  1  0  0  0  0
 27 25  1  0  0  0  0
 28 27  1  0  0  0  0
 29 22  1  0  0  0  0
 29 27  2  0  0  0  0
 30 29  1  0  0  0  0
 31 34  1  0  0  0  0
 31  2  1  0  0  0  0
 32 31  1  0  0  0  0
 33 31  1  0  0  0  0
 35  4  1  1  0  0  0
 35 42  1  0  0  0  0
 36 38  2  0  0  0  0
 37 36  1  0  0  0  0
 38 40  1  0  0  0  0
 38 39  1  0  0  0  0
 40 41  1  0  0  0  0
 42 43  1  0  0  0  0
 42 40  2  0  0  0  0
 44 46  1  0  0  0  0
 44  1  1  0  0  0  0
 45 44  1  0  0  0  0
 47 44  1  6  0  0  0
 47  8  1  0  0  0  0
 48 49  1  0  0  0  0
 50 48  2  0  0  0  0
 50 51  1  0  0  0  0
 52 50  1  0  0  0  0
 53 52  1  0  0  0  0
 54 47  1  0  0  0  0
 54 52  2  0  0  0  0
 55 54  1  0  0  0  0
M  END
