1,23,24,45,46
q = -1.0, confidence = 0.39

 66 69  0  0  1  0  0  0  0  0999 V2000
    0.0596   -0.3965   -1.5302 N   0  0  0  0  0  2  0  0  0  0  0  0
    1.5180   -2.3603   -0.0795 N   0  0  0  0  0  0  0  0  0  0  0  0
    0.0914   -2.3881    0.3936 C   0  0  2  0  0  0  0  0  0  0  0  0
   -0.0754   -3.2769    1.0560 H   0  0  0  0  0  0  0  0  0  0  0  0
    2.4046   -2.8506    0.9850 C   0  0  0  0  0  0  0  0  0  0  0  0
    2.2863   -3.9514    1.1235 H   0  0  0  0  0  0  0  0  0  0  0  0
    2.1554   -2.3395    1.9331 H   0  0  0  0  0  0  0  0  0  0  0  0
    3.4536   -2.6120    0.7311 H   0  0  0  0  0  0  0  0  0  0  0  0
    1.8116   -3.0342   -1.3434 C   0  0  0  0  0  0  0  0  0  0  0  0
    2.8683   -2.8274   -1.6027 H   0  0  0  0  0  0  0  0  0  0  0  0
    1.1632   -2.6452   -2.1474 H   0  0  0  0  0  0  0  0  0  0  0  0
    1.6674   -4.1372   -1.2713 H   0  0  0  0  0  0  0  0  0  0  0  0
   -0.9508   -1.3212   -1.6402 C   0  0  0  0  0  0  0  0  0  0  0  0
   -1.9771   -1.2833   -2.6190 C   0  0  0  0  0  0  0  0  0  0  0  0
   -2.0406   -0.4329   -3.3110 H   0  0  0  0  0  0  0  0  0  0  0  0
   -1.8785   -3.4426   -0.8284 C   0  0  0  0  0  0  0  0  0  0  0  0
   -1.8408   -4.2791   -0.1111 H   0  0  0  0  0  0  0  0  0  0  0  0
   -0.9264   -2.4230   -0.7265 C   0  0  0  0  0  0  0  0  0  0  0  0
   -2.8776   -3.4066   -1.8168 C   0  0  0  0  0  0  0  0  0  0  0  0
   -3.6235   -4.2117   -1.8838 H   0  0  0  0  0  0  0  0  0  0  0  0
   -2.9190   -2.3178   -2.7019 C   0  0  0  0  0  0  0  0  0  0  0  0
   -3.7067   -2.2648   -3.4695 H   0  0  0  0  0  0  0  0  0  0  0  0
    0.0612   -1.1268    1.1085 N   0  0  0  0  0  2  0  0  0  0  0  0
    1.5156    1.1135    2.0840 N   0  0  0  0  0  0  0  0  0  0  0  0
    0.0884    1.5351    1.8712 C   0  0  2  0  0  0  0  0  0  0  0  0
   -0.0800    2.5528    2.3099 H   0  0  0  0  0  0  0  0  0  0  0  0
    1.8100    0.3563    3.2996 C   0  0  0  0  0  0  0  0  0  0  0  0
    2.8672    0.0302    3.2503 H   0  0  0  0  0  0  0  0  0  0  0  0
    1.1631   -0.5355    3.3645 H   0  0  0  0  0  0  0  0  0  0  0  0
    1.6646    0.9701    4.2187 H   0  0  0  0  0  0  0  0  0  0  0  0
    2.4003    2.2819    1.9767 C   0  0  0  0  0  0  0  0  0  0  0  0
    2.2798    2.9526    2.8602 H   0  0  0  0  0  0  0  0  0  0  0  0
    2.1512    2.8464    1.0593 H   0  0  0  0  0  0  0  0  0  0  0  0
    3.4499    1.9447    1.8984 H   0  0  0  0  0  0  0  0  0  0  0  0
   -0.9501   -0.7613    1.9640 C   0  0  0  0  0  0  0  0  0  0  0  0
   -1.9750   -1.6296    2.4205 C   0  0  0  0  0  0  0  0  0  0  0  0
   -2.0367   -2.6544    2.0303 H   0  0  0  0  0  0  0  0  0  0  0  0
   -2.9180   -1.1855    3.3575 C   0  0  0  0  0  0  0  0  0  0  0  0
   -3.7046   -1.8780    3.6953 H   0  0  0  0  0  0  0  0  0  0  0  0
   -1.8811    1.0010    3.3949 C   0  0  0  0  0  0  0  0  0  0  0  0
   -1.8451    2.0406    3.7606 H   0  0  0  0  0  0  0  0  0  0  0  0
   -2.8789    0.1256    3.8576 C   0  0  0  0  0  0  0  0  0  0  0  0
   -3.6257    0.4690    4.5881 H   0  0  0  0  0  0  0  0  0  0  0  0
   -0.9281    0.5810    2.4612 C   0  0  0  0  0  0  0  0  0  0  0  0
    0.0585    1.5236    0.4214 N   0  0  0  0  0  2  0  0  0  0  0  0
    1.5142    1.2506   -2.0061 N   0  0  0  0  0  0  0  0  0  0  0  0
    0.0877    0.8533   -2.2652 C   0  0  2  0  0  0  0  0  0  0  0  0
   -0.0803    0.7240   -3.3658 H   0  0  0  0  0  0  0  0  0  0  0  0
    2.4004    0.5746   -2.9638 C   0  0  0  0  0  0  0  0  0  0  0  0
    2.2800    1.0041   -3.9864 H   0  0  0  0  0  0  0  0  0  0  0  0
    2.1529   -0.5025   -2.9939 H   0  0  0  0  0  0  0  0  0  0  0  0
    3.4497    0.6769   -2.6317 H   0  0  0  0  0  0  0  0  0  0  0  0
    1.8069    2.6823   -1.9575 C   0  0  0  0  0  0  0  0  0  0  0  0
    2.8635    2.8036   -1.6486 H   0  0  0  0  0  0  0  0  0  0  0  0
    1.1583    3.1835   -1.2186 H   0  0  0  0  0  0  0  0  0  0  0  0
    1.6626    3.1713   -2.9488 H   0  0  0  0  0  0  0  0  0  0  0  0
   -0.9533    2.0803   -0.3231 C   0  0  0  0  0  0  0  0  0  0  0  0
   -0.9306    1.8398   -1.7342 C   0  0  0  0  0  0  0  0  0  0  0  0
   -1.9798    2.9079    0.2005 C   0  0  0  0  0  0  0  0  0  0  0  0
   -2.0420    3.0820    1.2831 H   0  0  0  0  0  0  0  0  0  0  0  0
   -1.8843    2.4369   -2.5649 C   0  0  0  0  0  0  0  0  0  0  0  0
   -1.8478    2.2340   -3.6481 H   0  0  0  0  0  0  0  0  0  0  0  0
   -2.8836    3.2737   -2.0383 C   0  0  0  0  0  0  0  0  0  0  0  0
   -3.6310    3.7334   -2.7011 H   0  0  0  0  0  0  0  0  0  0  0  0
   -2.9235    3.4959   -0.6528 C   0  0  0  0  0  0  0  0  0  0  0  0
   -3.7113    4.1333   -0.2221 H   0  0  0  0  0  0  0  0  0  0  0  0
  2  3  1  0  0  0  0
  2  5  1  0  0  0  0
  3  4  1  1  0  0  0
  3 23  1  0  0  0  0
  5  6  1  0  0  0  0
  5  7  1  0  0  0  0
  8  5  1  0  0  0  0
  9 12  1  0  0  0  0
  9  2  1  0  0  0  0
 10  9  1  0  0  0  0
 11  9  1  0  0  0  0
 13  1  1  0  0  0  0
 13 18  1  0  0  0  0
 14 13  2  0  0  0  0
 15 14  1  0  0  0  0
 16 18  2  0  0  0  0
 16 17  1  0  0  0  0
 18  3  1  0  0  0  0
 19 16  1  0  0  0  0
 20 19  1  0  0  0  0
 21 14  1  0  0  0  0
 21 19  2  0  0  0  0
 22 21  1  0  0  0  0
 23 35  1  0  0  0  0
 24 27  1  0  0  0  0
 25 24  1  0  0  0  0
 25 26  1  1  0  0  0
 25 44  1  0  0  0  0
 27 29  1  0  0  0  0
 27 30  1  0  0  0  0
 28 27  1  0  0  0  0
 31 24  1  0  0  0  0
 31 32  1  0  0  0  0
 33 31  1  0  0  0  0
 34 31  1  0  0  0  0
 35 36  2  0  0  0  0
 35 44  1  0  0  0  0
 36 38  1  0  0  0  0
 37 36  1  0  0  0  0
 38 39  1  0  0  0  0
 38 42  2  0  0  0  0
 40 41  1  0  0  0  0
 40 42  1  0  0  0  0
 42 43  1  0  0  0  0
 44 40  2  0  0  0  0
 45 25  1  0  0  0  0
 46 53  1  0  0  0  0
 47 48  1  6  0  0  0
 47 46  1  0  0  0  0
 47 58  1  0  0  0  0
 47  1  1  0  0  0  0
 49 52  1  0  0  0  0
 49 46  1  0  0  0  0
 50 49  1  0  0  0  0
 51 49  1  0  0  0  0
 53 54  1  0  0  0  0
 53 55  1  0  0  0  0
 56 53  1  0  0  0  0
 57 59  1  0  0  0  0
 57 45  1  0  0  0  0
 58 57  2  0  0  0  0
 59 60  1  0  0  0  0
 61 63  2  0  0  0  0
 61 58  1  0  0  0  0
 62 61  1  0  0  0  0
 63 65  1  0  0  0  0
 64 63  1  0  0  0  0
 65 66  1  0  0  0  0
 65 59  2  0  0  0  0
M  END
