61,62,63,64,65
q = -2.0, confidence = 0.82

 77 79  0  0  1  0  0  0  0  0999 V2000
   -1.7920   -3.3732    1.9490 C   0  0  0  0  0  0  0  0  0  0  0  0
   -1.0985   -3.1325    2.7790 H   0  0  0  0  0  0  0  0  0  0  0  0
   -1.9178   -4.4773    1.9198 H   0  0  0  0  0  0  0  0  0  0  0  0
   -3.1123   -2.6199    2.2037 C   0  0  0  0  0  0  0  0  0  0  0  0
   -3.9412   -3.0095    1.5835 H   0  0  0  0  0  0  0  0  0  0  0  0
   -3.3995   -2.7020    3.2729 H   0  0  0  0  0  0  0  0  0  0  0  0
   -2.3679   -0.4272    2.8565 C   0  0  0  0  0  0  0  0  0  0  0  0
   -1.3161    0.5133    2.3324 C   0  0  1  0  0  3  0  0  0  0  0  0
   -0.7318    1.5167    3.1146 C   0  0  0  0  0  0  0  0  0  0  0  0
   -1.1752    1.7219    4.0994 H   0  0  0  0  0  0  0  0  0  0  0  0
    0.3957    2.1797    2.6250 C   0  0  0  0  0  0  0  0  0  0  0  0
    0.8966    2.9843    3.1833 H   0  0  0  0  0  0  0  0  0  0  0  0
    0.9275    1.7909    1.3792 C   0  0  0  0  0  0  0  0  0  0  0  0
    0.2784    0.7853    0.6414 C   0  0  0  0  0  0  0  0  0  0  0  0
    0.6505    0.4732   -0.3401 H   0  0  0  0  0  0  0  0  0  0  0  0
    2.1601    2.4718    0.8797 C   0  0  0  0  0  0  0  0  0  0  0  0
    3.7315    2.5989   -0.8671 C   0  0  0  0  0  0  0  0  0  0  0  0
    4.0153    1.9990   -1.7488 H   0  0  0  0  0  0  0  0  0  0  0  0
    4.5666    2.6491   -0.1408 H   0  0  0  0  0  0  0  0  0  0  0  0
    3.4663    3.6316   -1.1709 H   0  0  0  0  0  0  0  0  0  0  0  0
   -1.4679   -3.7772   -0.4912 C   0  0  0  0  0  0  0  0  0  0  0  0
   -0.8388   -3.4198   -1.3268 H   0  0  0  0  0  0  0  0  0  0  0  0
   -1.2095   -4.8330   -0.2590 H   0  0  0  0  0  0  0  0  0  0  0  0
   -2.9404   -3.6160   -0.8468 C   0  0  0  0  0  0  0  0  0  0  0  0
   -3.1395   -3.9664   -1.8830 H   0  0  0  0  0  0  0  0  0  0  0  0
   -3.5900   -4.2396   -0.1858 H   0  0  0  0  0  0  0  0  0  0  0  0
   -4.2986   -1.6492   -1.3282 C   0  0  0  0  0  0  0  0  0  0  0  0
   -4.2642   -0.1641   -1.1141 C   0  0  2  0  0  3  0  0  0  0  0  0
   -5.2537    0.6868   -1.6212 C   0  0  0  0  0  0  0  0  0  0  0  0
   -6.0824    0.2180   -2.1715 H   0  0  0  0  0  0  0  0  0  0  0  0
   -5.1409    2.0621   -1.4119 C   0  0  0  0  0  0  0  0  0  0  0  0
   -5.8939    2.7687   -1.7873 H   0  0  0  0  0  0  0  0  0  0  0  0
   -4.0230    2.5429   -0.7002 C   0  0  0  0  0  0  0  0  0  0  0  0
   -3.0629    1.6294   -0.2381 C   0  0  0  0  0  0  0  0  0  0  0  0
   -2.1805    2.0095    0.2882 H   0  0  0  0  0  0  0  0  0  0  0  0
   -3.7784    3.9849   -0.4064 C   0  0  0  0  0  0  0  0  0  0  0  0
   -4.5754    6.1794   -0.7039 C   0  0  0  0  0  0  0  0  0  0  0  0
   -5.4275    6.6761   -1.2005 H   0  0  0  0  0  0  0  0  0  0  0  0
   -3.6158    6.5400   -1.1260 H   0  0  0  0  0  0  0  0  0  0  0  0
   -4.5785    6.3974    0.3832 H   0  0  0  0  0  0  0  0  0  0  0  0
    0.3086   -2.6645    0.7920 C   0  0  0  0  0  0  0  0  0  0  0  0
    0.4730   -2.0103    1.6705 H   0  0  0  0  0  0  0  0  0  0  0  0
    0.5828   -2.0929   -0.1161 H   0  0  0  0  0  0  0  0  0  0  0  0
    1.2630   -3.8712    0.8726 C   0  0  0  0  0  0  0  0  0  0  0  0
    1.1853   -4.4228    1.8310 H   0  0  0  0  0  0  0  0  0  0  0  0
    1.0761   -4.5772    0.0408 H   0  0  0  0  0  0  0  0  0  0  0  0
    3.0317   -2.9982   -0.5489 C   0  0  0  0  0  0  0  0  0  0  0  0
    4.1565   -1.9866   -0.5395 C   0  0  0  0  0  0  0  0  0  0  0  0
    4.7797   -1.6400   -1.7514 C   0  0  0  0  0  0  0  0  0  0  0  0
    4.4819   -2.1663   -2.6691 H   0  0  0  0  0  0  0  0  0  0  0  0
    5.7343   -0.6212   -1.7329 C   0  0  0  0  0  0  0  0  0  0  0  0
    6.2605   -0.2909   -2.6412 H   0  0  0  0  0  0  0  0  0  0  0  0
    6.0188    0.0229   -0.5136 C   0  0  0  0  0  0  0  0  0  0  0  0
    5.3529   -0.4165    0.6506 C   0  0  0  0  0  0  0  0  0  0  0  0
    5.5667    0.0629    1.6197 H   0  0  0  0  0  0  0  0  0  0  0  0
    6.9891    1.1586   -0.5160 C   0  0  0  0  0  0  0  0  0  0  0  0
    7.9592    2.8779    0.7750 C   0  0  0  0  0  0  0  0  0  0  0  0
    7.8914    3.2503    1.8119 H   0  0  0  0  0  0  0  0  0  0  0  0
    7.6621    3.6692    0.0580 H   0  0  0  0  0  0  0  0  0  0  0  0
    8.9957    2.5644    0.5389 H   0  0  0  0  0  0  0  0  0  0  0  0
   -1.1449   -2.8985    0.6764 N   0  0  0  0  0  0  0  0  0  0  0  0
   -2.8135   -1.2452    1.8640 N   0  0  0  0  0  2  0  0  0  0  0  0
   -0.8256    0.1737    1.1091 N   0  0  0  0  0  2  0  0  0  0  0  0
   -3.2387   -2.2098   -0.7094 N   0  0  0  0  0  2  0  0  0  0  0  0
   -3.1884    0.3077   -0.4316 N   0  0  0  0  0  2  0  0  0  0  0  0
    2.6074   -3.3521    0.7034 N   0  0  0  0  0  0  0  0  0  0  0  0
    3.0386   -2.7891    1.4493 H   0  0  0  0  0  0  0  0  0  0  0  0
    4.4483   -1.4019    0.6394 N   0  0  0  0  0  0  0  0  0  0  0  0
   -2.6271   -0.4928    4.0667 O   0  0  0  0  0  0  0  0  0  0  0  0
    2.7114    3.3936    1.4559 O   0  0  0  0  0  0  0  0  0  0  0  0
    2.5976    1.9416   -0.2869 O   0  0  0  0  0  0  0  0  0  0  0  0
   -5.1730   -2.2268   -1.9913 O   0  0  0  0  0  0  0  0  0  0  0  0
   -2.8344    4.4090    0.2386 O   0  0  0  0  0  0  0  0  0  0  0  0
   -4.7392    4.7767   -0.9417 O   0  0  0  0  0  0  0  0  0  0  0  0
    2.5308   -3.4045   -1.6007 O   0  0  0  0  0  0  0  0  0  0  0  0
    7.6214    1.5209   -1.4926 O   0  0  0  0  0  0  0  0  0  0  0  0
    7.0618    1.7617    0.6957 O   0  0  0  0  0  0  0  0  0  0  0  0
  1  4  1  0  0  0  0
  1  2  1  0  0  0  0
  3  1  1  0  0  0  0
  4  6  1  0  0  0  0
  5  4  1  0  0  0  0
  7 69  2  0  0  0  0
  8  7  1  1  0  0  0
  8  9  1  0  0  0  0
  9 10  1  0  0  0  0
 11  9  2  0  0  0  0
 11 12  1  0  0  0  0
 13 11  1  0  0  0  0
 14 63  1  0  0  0  0
 14 13  2  0  0  0  0
 15 14  1  0  0  0  0
 16 13  1  0  0  0  0
 16 70  2  0  0  0  0
 17 71  1  0  0  0  0
 17 19  1  0  0  0  0
 18 17  1  0  0  0  0
 20 17  1  0  0  0  0
 21 23  1  0  0  0  0
 21 61  1  0  0  0  0
 22 21  1  0  0  0  0
 24 64  1  0  0  0  0
 24 21  1  0  0  0  0
 24 26  1  0  0  0  0
 25 24  1  0  0  0  0
 27 64  1  0  0  0  0
 28 27  1  6  0  0  0
 28 65  1  0  0  0  0
 29 31  2  0  0  0  0
 29 28  1  0  0  0  0
 30 29  1  0  0  0  0
 31 33  1  0  0  0  0
 32 31  1  0  0  0  0
 33 36  1  0  0  0  0
 33 34  2  0  0  0  0
 34 35  1  0  0  0  0
 36 73  2  0  0  0  0
 37 40  1  0  0  0  0
 38 37  1  0  0  0  0
 39 37  1  0  0  0  0
 41 44  1  0  0  0  0
 41 42  1  0  0  0  0
 43 41  1  0  0  0  0
 44 45  1  0  0  0  0
 46 44  1  0  0  0  0
 47 48  1  0  0  0  0
 47 66  1  0  0  0  0
 48 68  1  0  0  0  0
 49 51  1  0  0  0  0
 49 48  2  0  0  0  0
 50 49  1  0  0  0  0
 51 53  2  0  0  0  0
 52 51  1  0  0  0  0
 53 54  1  0  0  0  0
 54 55  1  0  0  0  0
 56 53  1  0  0  0  0
 56 77  1  0  0  0  0
 57 58  1  0  0  0  0
 59 57  1  0  0  0  0
 60 57  1  0  0  0  0
 61 41  1  0  0  0  0
 61  1  1  0  0  0  0
 62  4  1  0  0  0  0
 62  7  1  0  0  0  0
 63  8  1  0  0  0  0
 65 34  1  0  0  0  0
 66 44  1  0  0  0  0
 66 67  1  0  0  0  0
 68 54  2  0  0  0  0
 71 16  1  0  0  0  0
 72 27  2  0  0  0  0
 74 37  1  0  0  0  0
 74 36  1  0  0  0  0
 75 47  2  0  0  0  0
 76 56  2  0  0  0  0
 77 57  1  0  0  0  0
M  END
