2,5
q = -1.0, confidence = 0.0

 21 22  0  0  1  0  0  0  0  0999 V2000
    2.4047    2.8397   -2.1603 S   0  0  0  0  0  0  0  0  0  0  0  0
    0.5920    1.5140   -0.7808 N   0  0  0  0  0  2  0  0  0  0  0  0
    1.0522    0.6640   -2.9774 N   0  0  0  0  0  0  0  0  0  0  0  0
    1.6073    0.8629   -3.8120 H   0  0  0  0  0  0  0  0  0  0  0  0
   -0.3972   -1.0387   -2.0581 N   0  0  0  0  0  2  0  0  0  0  0  0
    0.9461    2.6273   -0.0083 C   0  0  0  0  0  0  0  0  0  0  0  0
    2.4304    4.6083    0.0592 C   0  0  0  0  0  0  0  0  0  0  0  0
    3.2122    5.2276   -0.4038 H   0  0  0  0  0  0  0  0  0  0  0  0
    1.2247    1.5211   -1.9484 C   0  0  1  0  0  3  0  0  0  0  0  0
    0.1509   -0.4866   -3.0486 C   0  0  0  0  0  0  0  0  0  0  0  0
    1.9503    3.4594   -0.5823 C   0  0  0  0  0  0  0  0  0  0  0  0
    0.3774    3.0172    1.2194 C   0  0  0  0  0  0  0  0  0  0  0  0
   -0.4248    2.4166    1.6618 H   0  0  0  0  0  0  0  0  0  0  0  0
    1.8764    4.9519    1.3012 C   0  0  0  0  0  0  0  0  0  0  0  0
    2.2382    5.8477    1.8272 H   0  0  0  0  0  0  0  0  0  0  0  0
    0.8512    4.1670    1.8631 C   0  0  0  0  0  0  0  0  0  0  0  0
    0.4073    4.4552    2.8274 H   0  0  0  0  0  0  0  0  0  0  0  0
    0.0182   -0.9474   -4.4898 C   0  0  0  0  0  0  0  0  0  0  0  0
   -0.4211   -0.1589   -5.1381 H   0  0  0  0  0  0  0  0  0  0  0  0
   -0.6381   -1.8344   -4.5079 H   0  0  0  0  0  0  0  0  0  0  0  0
    1.0057   -1.2253   -4.9223 H   0  0  0  0  0  0  0  0  0  0  0  0
  1  9  1  0  0  0  0
  1 11  1  0  0  0  0
  2  6  1  0  0  0  0
  4  3  1  0  0  0  0
  6 12  1  0  0  0  0
  7 14  2  0  0  0  0
  8  7  1  0  0  0  0
  9  3  1  6  0  0  0
  9  2  1  0  0  0  0
 10  3  1  0  0  0  0
 10  5  2  0  0  0  0
 11  6  2  0  0  0  0
 11  7  1  0  0  0  0
 12 13  1  0  0  0  0
 12 16  2  0  0  0  0
 14 15  1  0  0  0  0
 14 16  1  0  0  0  0
 16 17  1  0  0  0  0
 18 10  1  0  0  0  0
 19 18  1  0  0  0  0
 20 18  1  0  0  0  0
 21 18  1  0  0  0  0
M  END
