1,2
q = 0.0, confidence = 0.822

 57 62  0  0  1  0  0  0  0  0999 V2000
   -1.3523    1.1034   -0.0400 N   0  0  0  0  0  2  0  0  0  0  0  0
    1.3511    1.1006   -0.0576 N   0  0  0  0  0  2  0  0  0  0  0  0
   -1.3043   -0.1558   -0.2202 C   0  0  0  0  0  0  0  0  0  0  0  0
   -0.0024   -0.8894   -0.5461 C   0  0  0  0  0  0  0  0  0  0  0  0
    1.3024   -0.1599   -0.2238 C   0  0  0  0  0  0  0  0  0  0  0  0
   -2.5729   -1.0254   -0.1197 C   0  0  1  0  0  0  0  0  0  0  0  0
   -2.7077   -2.0001   -1.3185 C   0  0  0  0  0  0  0  0  0  0  0  0
   -2.5192   -1.8625    1.1894 C   0  0  0  0  0  0  0  0  0  0  0  0
   -3.8320   -0.1335   -0.0677 C   0  0  0  0  0  0  0  0  0  0  0  0
   -5.1039   -0.9877    0.0741 C   0  0  1  0  0  0  0  0  0  0  0  0
   -5.2193   -1.9418   -1.1298 C   0  0  0  0  0  0  0  0  0  0  0  0
   -3.9813   -2.8566   -1.1767 C   0  0  2  0  0  0  0  0  0  0  0  0
   -3.8984   -3.6772    0.1254 C   0  0  0  0  0  0  0  0  0  0  0  0
   -3.7891   -2.7238    1.3312 C   0  0  2  0  0  0  0  0  0  0  0  0
   -5.0274   -1.8088    1.3756 C   0  0  0  0  0  0  0  0  0  0  0  0
    2.5692   -1.0308   -0.1207 C   0  0  1  0  0  0  0  0  0  0  0  0
    2.5160   -1.8637    1.1909 C   0  0  0  0  0  0  0  0  0  0  0  0
    2.7000   -2.0095   -1.3168 C   0  0  0  0  0  0  0  0  0  0  0  0
    3.8299   -0.1407   -0.0745 C   0  0  0  0  0  0  0  0  0  0  0  0
    5.1005   -0.9966    0.0678 C   0  0  1  0  0  0  0  0  0  0  0  0
    5.0249   -1.8133    1.3721 C   0  0  0  0  0  0  0  0  0  0  0  0
    3.7849   -2.7264    1.3331 C   0  0  2  0  0  0  0  0  0  0  0  0
    3.8905   -3.6839    0.1301 C   0  0  0  0  0  0  0  0  0  0  0  0
    3.9724   -2.8677   -1.1748 C   0  0  2  0  0  0  0  0  0  0  0  0
    5.2120   -1.9547   -1.1332 C   0  0  0  0  0  0  0  0  0  0  0  0
   -0.0027   -1.0714   -1.6469 H   0  0  0  0  0  0  0  0  0  0  0  0
   -0.0043   -1.9052   -0.0994 H   0  0  0  0  0  0  0  0  0  0  0  0
   -1.8223   -2.6677   -1.3765 H   0  0  0  0  0  0  0  0  0  0  0  0
   -2.7381   -1.4186   -2.2660 H   0  0  0  0  0  0  0  0  0  0  0  0
   -2.4202   -1.1738    2.0562 H   0  0  0  0  0  0  0  0  0  0  0  0
   -1.6201   -2.5161    1.1913 H   0  0  0  0  0  0  0  0  0  0  0  0
   -3.8765    0.4877   -0.9874 H   0  0  0  0  0  0  0  0  0  0  0  0
   -3.7340    0.5795    0.7761 H   0  0  0  0  0  0  0  0  0  0  0  0
   -5.9917   -0.3203    0.1072 H   0  0  0  0  0  0  0  0  0  0  0  0
   -5.2979   -1.3583   -2.0725 H   0  0  0  0  0  0  0  0  0  0  0  0
   -6.1437   -2.5539   -1.0502 H   0  0  0  0  0  0  0  0  0  0  0  0
   -4.0564   -3.5444   -2.0463 H   0  0  0  0  0  0  0  0  0  0  0  0
   -3.0181   -4.3556    0.0937 H   0  0  0  0  0  0  0  0  0  0  0  0
   -4.7981   -4.3213    0.2286 H   0  0  0  0  0  0  0  0  0  0  0  0
   -3.7256   -3.3147    2.2702 H   0  0  0  0  0  0  0  0  0  0  0  0
   -5.9483   -2.4185    1.5012 H   0  0  0  0  0  0  0  0  0  0  0  0
   -4.9671   -1.1284    2.2522 H   0  0  0  0  0  0  0  0  0  0  0  0
    1.6158   -2.5158    1.1957 H   0  0  0  0  0  0  0  0  0  0  0  0
    2.4186   -1.1727    2.0559 H   0  0  0  0  0  0  0  0  0  0  0  0
    2.7298   -1.4307   -2.2661 H   0  0  0  0  0  0  0  0  0  0  0  0
    1.8133   -2.6755   -1.3711 H   0  0  0  0  0  0  0  0  0  0  0  0
    3.7364    0.5751    0.7676 H   0  0  0  0  0  0  0  0  0  0  0  0
    3.8724    0.4778   -0.9960 H   0  0  0  0  0  0  0  0  0  0  0  0
    5.9895   -0.3307    0.0971 H   0  0  0  0  0  0  0  0  0  0  0  0
    4.9673   -1.1299    2.2467 H   0  0  0  0  0  0  0  0  0  0  0  0
    5.9449   -2.4241    1.4982 H   0  0  0  0  0  0  0  0  0  0  0  0
    3.7223   -3.3142    2.2741 H   0  0  0  0  0  0  0  0  0  0  0  0
    3.0091   -4.3610    0.1023 H   0  0  0  0  0  0  0  0  0  0  0  0
    4.7894   -4.3291    0.2338 H   0  0  0  0  0  0  0  0  0  0  0  0
    4.0445   -3.5583   -2.0423 H   0  0  0  0  0  0  0  0  0  0  0  0
    6.1356   -2.5681   -1.0534 H   0  0  0  0  0  0  0  0  0  0  0  0
    5.2898   -1.3744   -2.0780 H   0  0  0  0  0  0  0  0  0  0  0  0
  3  1  2  0  0  0  0
  4  5  1  0  0  0  0
  4  3  1  0  0  0  0
  4 27  1  0  0  0  0
  5  2  2  0  0  0  0
  6  3  1  6  0  0  0
  6  9  1  0  0  0  0
  6  8  1  0  0  0  0
  7 12  1  0  0  0  0
  7  6  1  0  0  0  0
  8 31  1  0  0  0  0
  8 14  1  0  0  0  0
  8 30  1  0  0  0  0
  9 10  1  0  0  0  0
  9 33  1  0  0  0  0
 10 34  1  1  0  0  0
 10 15  1  0  0  0  0
 11 36  1  0  0  0  0
 11 10  1  0  0  0  0
 12 37  1  6  0  0  0
 12 11  1  0  0  0  0
 12 13  1  0  0  0  0
 13 39  1  0  0  0  0
 13 14  1  0  0  0  0
 14 15  1  0  0  0  0
 14 40  1  1  0  0  0
 15 41  1  0  0  0  0
 15 42  1  0  0  0  0
 16  5  1  6  0  0  0
 16 19  1  0  0  0  0
 16 17  1  0  0  0  0
 17 43  1  0  0  0  0
 17 22  1  0  0  0  0
 17 44  1  0  0  0  0
 18 24  1  0  0  0  0
 18 16  1  0  0  0  0
 19 20  1  0  0  0  0
 19 47  1  0  0  0  0
 20 49  1  1  0  0  0
 20 21  1  0  0  0  0
 21 51  1  0  0  0  0
 21 50  1  0  0  0  0
 22 21  1  0  0  0  0
 22 52  1  1  0  0  0
 23 54  1  0  0  0  0
 23 22  1  0  0  0  0
 24 55  1  6  0  0  0
 24 25  1  0  0  0  0
 24 23  1  0  0  0  0
 25 56  1  0  0  0  0
 25 20  1  0  0  0  0
 26  4  1  0  0  0  0
 28  7  1  0  0  0  0
 29  7  1  0  0  0  0
 32  9  1  0  0  0  0
 35 11  1  0  0  0  0
 38 13  1  0  0  0  0
 45 18  1  0  0  0  0
 46 18  1  0  0  0  0
 48 19  1  0  0  0  0
 53 23  1  0  0  0  0
 57 25  1  0  0  0  0
M  END
