2,5
q = nan, confidence = 0.0

 41 40  0  0  0  0  0  0  0  0999 V2000
    0.9485    1.7577    0.0551 P   0  0  0  0  0  4  0  0  0  0  0  0
   -0.5375    1.0521    0.2063 N   0  0  0  0  0  1  0  0  0  0  0  0
    1.9965   -0.9293    0.0035 P   0  0  0  0  0  4  0  0  0  0  0  0
    2.1686    0.6783    0.0482 N   0  0  0  0  0  2  0  0  0  0  0  0
    0.4061   -1.4107   -0.2023 N   0  0  0  0  0  1  0  0  0  0  0  0
    1.0403    2.9015    1.2883 N   0  0  0  0  0  0  0  0  0  0  0  0
    1.0606    2.6652   -1.3612 N   0  0  0  0  0  0  0  0  0  0  0  0
    2.8332   -1.7239   -1.2181 N   0  0  0  0  0  0  0  0  0  0  0  0
    2.6126   -1.5789    1.4280 N   0  0  0  0  0  0  0  0  0  0  0  0
    0.3953    2.6034    2.5625 C   0  0  0  0  0  0  0  0  0  0  0  0
    2.2146    3.7577    1.3578 C   0  0  0  0  0  0  0  0  0  0  0  0
   -0.0155    3.6224   -1.6123 C   0  0  0  0  0  0  0  0  0  0  0  0
    1.6320    2.0596   -2.5606 C   0  0  0  0  0  0  0  0  0  0  0  0
    2.1914   -1.8925   -2.5188 C   0  0  0  0  0  0  0  0  0  0  0  0
    4.2869   -1.6517   -1.2328 C   0  0  0  0  0  0  0  0  0  0  0  0
    2.4343   -3.0165    1.6327 C   0  0  0  0  0  0  0  0  0  0  0  0
    2.5754   -0.7764    2.6482 C   0  0  0  0  0  0  0  0  0  0  0  0
   -0.4274    1.8755    2.4147 H   0  0  0  0  0  0  0  0  0  0  0  0
   -0.0269    3.5348    2.9974 H   0  0  0  0  0  0  0  0  0  0  0  0
    1.1100    2.1702    3.3007 H   0  0  0  0  0  0  0  0  0  0  0  0
    2.6080    3.9296    0.3376 H   0  0  0  0  0  0  0  0  0  0  0  0
    3.0274    3.3180    1.9829 H   0  0  0  0  0  0  0  0  0  0  0  0
    1.9372    4.7410    1.7948 H   0  0  0  0  0  0  0  0  0  0  0  0
   -0.3972    4.0114   -0.6496 H   0  0  0  0  0  0  0  0  0  0  0  0
   -0.8597    3.1541   -2.1658 H   0  0  0  0  0  0  0  0  0  0  0  0
    0.3762    4.4754   -2.2062 H   0  0  0  0  0  0  0  0  0  0  0  0
    2.4681    1.3965   -2.2728 H   0  0  0  0  0  0  0  0  0  0  0  0
    2.0280    2.8631   -3.2173 H   0  0  0  0  0  0  0  0  0  0  0  0
    0.8791    1.4674   -3.1286 H   0  0  0  0  0  0  0  0  0  0  0  0
    1.0895   -1.8573   -2.4122 H   0  0  0  0  0  0  0  0  0  0  0  0
    2.4713   -2.8773   -2.9495 H   0  0  0  0  0  0  0  0  0  0  0  0
    2.4967   -1.0977   -3.2380 H   0  0  0  0  0  0  0  0  0  0  0  0
    4.6636   -1.5382   -0.1983 H   0  0  0  0  0  0  0  0  0  0  0  0
    4.6635   -0.7985   -1.8443 H   0  0  0  0  0  0  0  0  0  0  0  0
    4.7046   -2.5906   -1.6554 H   0  0  0  0  0  0  0  0  0  0  0  0
    2.4522   -3.5365    0.6568 H   0  0  0  0  0  0  0  0  0  0  0  0
    1.4670   -3.2435    2.1339 H   0  0  0  0  0  0  0  0  0  0  0  0
    3.2640   -3.4088    2.2579 H   0  0  0  0  0  0  0  0  0  0  0  0
    2.7675    0.2822    2.3959 H   0  0  0  0  0  0  0  0  0  0  0  0
    3.3726   -1.1278    3.3366 H   0  0  0  0  0  0  0  0  0  0  0  0
    1.5932   -0.8500    3.1675 H   0  0  0  0  0  0  0  0  0  0  0  0
  1  2  1  0  0  0  0
  1  6  1  0  0  0  0
  3  4  1  0  0  0  0
  3  9  1  0  0  0  0
  4  1  1  0  0  0  0
  5  3  1  0  0  0  0
  6 11  1  0  0  0  0
  6 10  1  0  0  0  0
  7  1  1  0  0  0  0
  8  3  1  0  0  0  0
  9 16  1  0  0  0  0
  9 17  1  0  0  0  0
 10 19  1  0  0  0  0
 10 20  1  0  0  0  0
 11 23  1  0  0  0  0
 11 22  1  0  0  0  0
 12  7  1  0  0  0  0
 12 24  1  0  0  0  0
 13 27  1  0  0  0  0
 13  7  1  0  0  0  0
 14 30  1  0  0  0  0
 14  8  1  0  0  0  0
 15  8  1  0  0  0  0
 15 33  1  0  0  0  0
 16 37  1  0  0  0  0
 16 38  1  0  0  0  0
 17 41  1  0  0  0  0
 17 40  1  0  0  0  0
 18 10  1  0  0  0  0
 21 11  1  0  0  0  0
 25 12  1  0  0  0  0
 26 12  1  0  0  0  0
 28 13  1  0  0  0  0
 29 13  1  0  0  0  0
 31 14  1  0  0  0  0
 32 14  1  0  0  0  0
 34 15  1  0  0  0  0
 35 15  1  0  0  0  0
 36 16  1  0  0  0  0
 39 17  1  0  0  0  0
M  END
