1,13
q = -2.0, confidence = 0.516

 23 24  0  0  0  0  0  0  0  0999 V2000
    0.2181   -1.3542    0.1370 N   0  0  0  0  0  1  0  0  0  0  0  0
    1.4639   -1.9025    0.2142 C   0  0  0  0  0  0  0  0  0  0  0  0
    1.6830   -3.1375    0.8765 C   0  0  0  0  0  0  0  0  0  0  0  0
    0.8139   -3.6408    1.3237 H   0  0  0  0  0  0  0  0  0  0  0  0
    2.9682   -3.6794    0.9759 C   0  0  0  0  0  0  0  0  0  0  0  0
    3.1193   -4.6325    1.5042 H   0  0  0  0  0  0  0  0  0  0  0  0
    4.0614   -3.0122    0.3981 C   0  0  0  0  0  0  0  0  0  0  0  0
    5.0720   -3.4418    0.4650 H   0  0  0  0  0  0  0  0  0  0  0  0
    3.8665   -1.7976   -0.2800 C   0  0  0  0  0  0  0  0  0  0  0  0
    4.7083   -1.2783   -0.7594 H   0  0  0  0  0  0  0  0  0  0  0  0
    2.5884   -1.2338   -0.3706 C   0  0  0  0  0  0  0  0  0  0  0  0
    2.3699   -0.0826   -1.0976 O   0  0  0  0  0  0  0  0  0  0  0  0
    0.2261    1.3573   -0.0414 N   0  0  0  0  0  1  0  0  0  0  0  0
    1.4718    1.9106   -0.0588 C   0  0  0  0  0  0  0  0  0  0  0  0
    2.5917    1.1645   -0.5525 C   0  0  0  0  0  0  0  0  0  0  0  0
    3.8684    1.7383   -0.5651 C   0  0  0  0  0  0  0  0  0  0  0  0
    4.7048    1.1553   -0.9756 H   0  0  0  0  0  0  0  0  0  0  0  0
    4.0685    3.0402   -0.0772 C   0  0  0  0  0  0  0  0  0  0  0  0
    5.0781    3.4769   -0.0894 H   0  0  0  0  0  0  0  0  0  0  0  0
    2.9806    3.7831    0.4112 C   0  0  0  0  0  0  0  0  0  0  0  0
    3.1347    4.8046    0.7896 H   0  0  0  0  0  0  0  0  0  0  0  0
    1.6963    3.2305    0.4097 C   0  0  0  0  0  0  0  0  0  0  0  0
    0.8318    3.7961    0.7858 H   0  0  0  0  0  0  0  0  0  0  0  0
  1  2  1  0  0  0  0
  2  3  1  0  0  0  0
  3  5  2  0  0  0  0
  3  4  1  0  0  0  0
  5  6  1  0  0  0  0
  7  8  1  0  0  0  0
  7  5  1  0  0  0  0
  9  7  2  0  0  0  0
 10  9  1  0  0  0  0
 11  9  1  0  0  0  0
 11  2  2  0  0  0  0
 12 15  1  0  0  0  0
 12 11  1  0  0  0  0
 14 13  1  0  0  0  0
 14 22  1  0  0  0  0
 15 14  2  0  0  0  0
 16 15  1  0  0  0  0
 16 18  2  0  0  0  0
 17 16  1  0  0  0  0
 18 20  1  0  0  0  0
 19 18  1  0  0  0  0
 20 21  1  0  0  0  0
 22 20  2  0  0  0  0
 22 23  1  0  0  0  0
M  END
