1,2
q = 0.0, confidence = 0.556

 17 18  0  0  0  0  0  0  0  0999 V2000
    2.0174   -0.7447    0.5387 N   0  0  0  0  0  2  0  0  0  0  0  0
    1.0135   -0.3136   -1.6512 N   0  0  0  0  0  1  0  0  0  0  0  0
    2.5611   -1.1265    1.7086 C   0  0  0  0  0  0  0  0  0  0  0  0
    3.7244   -0.5141    2.2296 C   0  0  0  0  0  0  0  0  0  0  0  0
    4.3525    0.5249    1.5516 C   0  0  0  0  0  0  0  0  0  0  0  0
    3.8187    0.9364    0.2956 C   0  0  0  0  0  0  0  0  0  0  0  0
    4.3344    1.9646   -0.5503 C   0  0  0  0  0  3  0  0  0  0  0  0
    3.7357    2.2480   -1.7781 C   0  0  0  0  0  0  0  0  0  0  0  0
    2.6044    1.5319   -2.2438 C   0  0  0  0  0  0  0  0  0  0  0  0
    2.0731    0.5265   -1.4302 C   0  0  0  0  0  0  0  0  0  0  0  0
    2.6676    0.2438   -0.1614 C   0  0  0  0  0  0  0  0  0  0  0  0
    2.0342   -1.9270    2.2465 H   0  0  0  0  0  0  0  0  0  0  0  0
    4.1149   -0.8763    3.1914 H   0  0  0  0  0  0  0  0  0  0  0  0
    5.2494    1.0148    1.9587 H   0  0  0  0  0  0  0  0  0  0  0  0
    5.2211    2.5277   -0.2229 H   0  0  0  0  0  0  0  0  0  0  0  0
    4.1561    3.0445   -2.4100 H   0  0  0  0  0  0  0  0  0  0  0  0
    2.1417    1.7569   -3.2145 H   0  0  0  0  0  0  0  0  0  0  0  0
  1  3  1  0  0  0  0
  2 10  1  0  0  0  0
  3  4  2  0  0  0  0
  3 12  1  0  0  0  0
  4 13  1  0  0  0  0
  5 14  1  0  0  0  0
  5  4  1  0  0  0  0
  6  5  2  0  0  0  0
  7 15  1  0  0  0  0
  7  6  1  0  0  0  0
  8  7  1  0  0  0  0
  9  8  2  0  0  0  0
  9 10  1  0  0  0  0
 10 11  2  0  0  0  0
 11  6  1  0  0  0  0
 11  1  1  0  0  0  0
 16  8  1  0  0  0  0
 17  9  1  0  0  0  0
M  END
