1,3
 OpenBabel05122313063D

 49 52  0  0  0  0  0  0  0  0999 V2000
    0.4808   -1.4561    0.1036 N   0  0  0  0  0  1  0  0  0  0  0  0
    1.8287   -0.5130   -0.2076 P   0  0  0  0  0  4  0  0  0  0  0  0
   -1.2575    0.5893   -0.3731 N   0  0  0  0  0  1  0  0  0  0  0  0
    0.0095    1.6418   -0.5071 P   0  0  0  0  0  4  0  0  0  0  0  0
    1.4641    0.9556   -0.8109 N   0  0  0  0  0  2  0  0  0  0  0  0
    2.7453   -0.4004    1.3578 C   0  0  0  0  0  0  0  0  0  0  0  0
    4.1141   -0.0625    1.3396 C   0  0  0  0  0  0  0  0  0  0  0  0
    4.7880    0.1687    2.5471 C   0  0  0  0  0  0  0  0  0  0  0  0
    4.0981    0.0662    3.7673 C   0  0  0  0  0  0  0  0  0  0  0  0
    2.7355   -0.2725    3.7811 C   0  0  0  0  0  0  0  0  0  0  0  0
    2.0512   -0.5085    2.5797 C   0  0  0  0  0  0  0  0  0  0  0  0
    2.8695   -1.3725   -1.4124 C   0  0  0  0  0  0  0  0  0  0  0  0
    3.3868   -2.6448   -1.0965 C   0  0  0  0  0  0  0  0  0  0  0  0
    4.1581   -3.3296   -2.0446 C   0  0  0  0  0  0  0  0  0  0  0  0
    4.4104   -2.7479   -3.2992 C   0  0  0  0  0  0  0  0  0  0  0  0
    3.8886   -1.4823   -3.6111 C   0  0  0  0  0  0  0  0  0  0  0  0
    3.1126   -0.7902   -2.6695 C   0  0  0  0  0  0  0  0  0  0  0  0
   -0.3323    2.7939   -1.8643 C   0  0  0  0  0  0  0  0  0  0  0  0
    0.7171    3.5194   -2.4615 C   0  0  0  0  0  0  0  0  0  0  0  0
    0.4331    4.4212   -3.4964 C   0  0  0  0  0  0  0  0  0  0  0  0
   -0.8905    4.5957   -3.9354 C   0  0  0  0  0  0  0  0  0  0  0  0
   -1.9329    3.8643   -3.3439 C   0  0  0  0  0  0  0  0  0  0  0  0
   -1.6581    2.9609   -2.3064 C   0  0  0  0  0  0  0  0  0  0  0  0
    0.0745    2.5588    1.0675 C   0  0  0  0  0  0  0  0  0  0  0  0
   -1.1161    2.8784    1.7492 C   0  0  0  0  0  0  0  0  0  0  0  0
   -1.0506    3.5281    2.9891 C   0  0  0  0  0  0  0  0  0  0  0  0
    0.1957    3.8516    3.5512 C   0  0  0  0  0  0  0  0  0  0  0  0
    1.3817    3.5236    2.8749 C   0  0  0  0  0  0  0  0  0  0  0  0
    1.3247    2.8761    1.6323 C   0  0  0  0  0  0  0  0  0  0  0  0
    4.6504    0.0163    0.3809 H   0  0  0  0  0  0  0  0  0  0  0  0
    5.8578    0.4274    2.5366 H   0  0  0  0  0  0  0  0  0  0  0  0
    4.6293    0.2490    4.7140 H   0  0  0  0  0  0  0  0  0  0  0  0
    2.1937   -0.3528    4.7353 H   0  0  0  0  0  0  0  0  0  0  0  0
    0.9778   -0.7577    2.5906 H   0  0  0  0  0  0  0  0  0  0  0  0
    3.1773   -3.0974   -0.1150 H   0  0  0  0  0  0  0  0  0  0  0  0
    4.5610   -4.3254   -1.8064 H   0  0  0  0  0  0  0  0  0  0  0  0
    5.0157   -3.2900   -4.0417 H   0  0  0  0  0  0  0  0  0  0  0  0
    4.0823   -1.0329   -4.5968 H   0  0  0  0  0  0  0  0  0  0  0  0
    2.6801    0.1974   -2.8898 H   0  0  0  0  0  0  0  0  0  0  0  0
    1.7510    3.3622   -2.1189 H   0  0  0  0  0  0  0  0  0  0  0  0
    1.2497    4.9887   -3.9679 H   0  0  0  0  0  0  0  0  0  0  0  0
   -1.1092    5.3029   -4.7501 H   0  0  0  0  0  0  0  0  0  0  0  0
   -2.9669    3.9922   -3.6985 H   0  0  0  0  0  0  0  0  0  0  0  0
   -2.4574    2.3619   -1.8434 H   0  0  0  0  0  0  0  0  0  0  0  0
   -2.0852    2.5873    1.3181 H   0  0  0  0  0  0  0  0  0  0  0  0
   -1.9784    3.7680    3.5299 H   0  0  0  0  0  0  0  0  0  0  0  0
    0.2423    4.3537    4.5298 H   0  0  0  0  0  0  0  0  0  0  0  0
    2.3589    3.7617    3.3216 H   0  0  0  0  0  0  0  0  0  0  0  0
    2.2461    2.5899    1.1035 H   0  0  0  0  0  0  0  0  0  0  0  0
  2  1  1  0  0  0  0
  2  6  1  0  0  0  0
  4  3  1  0  0  0  0
  4 24  1  0  0  0  0
  5  4  1  0  0  0  0
  5  2  1  0  0  0  0
  6 11  1  0  0  0  0
  7  6  2  0  0  0  0
  7  8  1  0  0  0  0
  8  9  2  0  0  0  0
  9 10  1  0  0  0  0
  9 32  1  0  0  0  0
 10 33  1  0  0  0  0
 11 34  1  0  0  0  0
 11 10  2  0  0  0  0
 12 13  1  0  0  0  0
 12  2  1  0  0  0  0
 13 35  1  0  0  0  0
 14 36  1  0  0  0  0
 14 13  2  0  0  0  0
 15 14  1  0  0  0  0
 16 15  2  0  0  0  0
 16 17  1  0  0  0  0
 17 12  2  0  0  0  0
 18  4  1  0  0  0  0
 19 40  1  0  0  0  0
 19 18  2  0  0  0  0
 20 19  1  0  0  0  0
 21 20  2  0  0  0  0
 21 22  1  0  0  0  0
 22 23  2  0  0  0  0
 23 18  1  0  0  0  0
 23 44  1  0  0  0  0
 24 29  2  0  0  0  0
 24 25  1  0  0  0  0
 25 26  2  0  0  0  0
 26 46  1  0  0  0  0
 26 27  1  0  0  0  0
 27 47  1  0  0  0  0
 28 48  1  0  0  0  0
 28 27  2  0  0  0  0
 29 28  1  0  0  0  0
 30  7  1  0  0  0  0
 31  8  1  0  0  0  0
 37 15  1  0  0  0  0
 38 16  1  0  0  0  0
 39 17  1  0  0  0  0
 41 20  1  0  0  0  0
 42 21  1  0  0  0  0
 43 22  1  0  0  0  0
 45 25  1  0  0  0  0
 49 29  1  0  0  0  0
M  END
