1,4
 OpenBabel05122313063D

 23 24  0  0  0  0  0  0  0  0999 V2000
    1.7791    0.4016   -0.1263 N   0  0  0  0  0  2  0  0  0  0  0  0
    1.8730    1.7117    0.1243 C   0  0  0  0  0  0  0  0  0  0  0  0
    0.6673    2.4525   -0.3332 C   0  0  0  0  0  0  0  0  0  0  0  0
   -0.2485    1.7389   -0.9323 N   0  0  0  0  0  1  0  0  0  0  0  0
    0.6480    3.8973   -0.1873 C   0  0  0  0  0  0  0  0  0  0  0  0
    1.7115    4.5393    0.3989 C   0  0  0  0  0  0  0  0  0  0  0  0
    2.8599    3.7963    0.8612 C   0  0  0  0  0  0  0  0  0  0  0  0
    2.9615    2.4257    0.7298 C   0  0  0  0  0  0  0  0  0  0  0  0
    3.8403    1.8820    1.1045 H   0  0  0  0  0  0  0  0  0  0  0  0
    3.6810    4.3487    1.3445 H   0  0  0  0  0  0  0  0  0  0  0  0
    1.6984    5.6313    0.5349 H   0  0  0  0  0  0  0  0  0  0  0  0
   -0.2480    4.4321   -0.5349 H   0  0  0  0  0  0  0  0  0  0  0  0
    2.8623   -0.4814    0.0677 C   0  0  0  0  0  0  0  0  0  0  0  0
    2.6926   -1.6261    0.8744 C   0  0  0  0  0  0  0  0  0  0  0  0
    3.7575   -2.5151    1.0609 C   0  0  0  0  0  0  0  0  0  0  0  0
    4.9933   -2.2901    0.4307 C   0  0  0  0  0  0  0  0  0  0  0  0
    5.1586   -1.1628   -0.3893 C   0  0  0  0  0  0  0  0  0  0  0  0
    4.1003   -0.2621   -0.5746 C   0  0  0  0  0  0  0  0  0  0  0  0
    4.2146    0.6104   -1.2348 H   0  0  0  0  0  0  0  0  0  0  0  0
    6.1182   -0.9847   -0.8983 H   0  0  0  0  0  0  0  0  0  0  0  0
    5.8241   -2.9976    0.5726 H   0  0  0  0  0  0  0  0  0  0  0  0
    3.6193   -3.3981    1.7033 H   0  0  0  0  0  0  0  0  0  0  0  0
    1.7214   -1.7927    1.3585 H   0  0  0  0  0  0  0  0  0  0  0  0
  1 13  1  0  0  0  0
  1  2  1  0  0  0  0
  2  8  1  0  0  0  0
  3  5  1  0  0  0  0
  3  2  2  0  0  0  0
  4  3  1  0  0  0  0
  5  6  2  0  0  0  0
  6 11  1  0  0  0  0
  6  7  1  0  0  0  0
  7 10  1  0  0  0  0
  8  7  2  0  0  0  0
  8  9  1  0  0  0  0
 12  5  1  0  0  0  0
 13 14  1  0  0  0  0
 14 15  2  0  0  0  0
 14 23  1  0  0  0  0
 15 22  1  0  0  0  0
 16 21  1  0  0  0  0
 16 15  1  0  0  0  0
 17 16  2  0  0  0  0
 18 17  1  0  0  0  0
 18 13  2  0  0  0  0
 19 18  1  0  0  0  0
 20 17  1  0  0  0  0
M  END
