1,2
 OpenBabel05122313063D

 28 29  0  0  0  0  0  0  0  0999 V2000
    0.3943   -1.4507   -0.4372 N   0  0  0  0  0  1  0  0  0  0  0  0
    0.3484    1.4260   -0.4193 N   0  0  0  0  0  1  0  0  0  0  0  0
    1.4520   -2.3102   -0.2967 C   0  0  0  0  0  0  0  0  0  0  0  0
    1.2251   -3.6950   -0.0763 C   0  0  0  0  0  0  0  0  0  0  0  0
    2.2952   -4.5834    0.0700 C   0  0  0  0  0  0  0  0  0  0  0  0
    3.6152   -4.1080   -0.0023 C   0  0  0  0  0  0  0  0  0  0  0  0
    3.8523   -2.7427   -0.2299 C   0  0  0  0  0  0  0  0  0  0  0  0
    2.7992   -1.8267   -0.3851 C   0  0  0  0  0  0  0  0  0  0  0  0
    3.0467   -0.3609   -0.6197 C   0  0  0  0  0  0  0  0  0  0  0  0
    2.8405    0.5033    0.6557 C   0  0  0  0  0  0  0  0  0  0  0  0
    2.5975    1.9547    0.3391 C   0  0  0  0  0  0  0  0  0  0  0  0
    3.5770    2.9396    0.5416 C   0  0  0  0  0  0  0  0  0  0  0  0
    3.3565    4.2826    0.1937 C   0  0  0  0  0  0  0  0  0  0  0  0
    2.1268    4.6620   -0.3704 C   0  0  0  0  0  0  0  0  0  0  0  0
    1.1237    3.7083   -0.5693 C   0  0  0  0  0  0  0  0  0  0  0  0
    1.3381    2.3476   -0.2244 C   0  0  0  0  0  0  0  0  0  0  0  0
    0.1849   -4.0486   -0.0374 H   0  0  0  0  0  0  0  0  0  0  0  0
    2.0997   -5.6538    0.2370 H   0  0  0  0  0  0  0  0  0  0  0  0
    4.4617   -4.8020    0.1106 H   0  0  0  0  0  0  0  0  0  0  0  0
    4.8879   -2.3726   -0.3009 H   0  0  0  0  0  0  0  0  0  0  0  0
    2.3454   -0.0017   -1.4001 H   0  0  0  0  0  0  0  0  0  0  0  0
    4.0737   -0.2006   -1.0046 H   0  0  0  0  0  0  0  0  0  0  0  0
    1.9658    0.0985    1.2074 H   0  0  0  0  0  0  0  0  0  0  0  0
    3.7183    0.3937    1.3238 H   0  0  0  0  0  0  0  0  0  0  0  0
    4.5429    2.6400    0.9798 H   0  0  0  0  0  0  0  0  0  0  0  0
    4.1454    5.0311    0.3606 H   0  0  0  0  0  0  0  0  0  0  0  0
    1.9465    5.7111   -0.6507 H   0  0  0  0  0  0  0  0  0  0  0  0
    0.1511    3.9840   -1.0028 H   0  0  0  0  0  0  0  0  0  0  0  0
  1  3  1  0  0  0  0
  2 16  1  0  0  0  0
  3  4  1  0  0  0  0
  4 17  1  0  0  0  0
  4  5  2  0  0  0  0
  5 18  1  0  0  0  0
  6  5  1  0  0  0  0
  6 19  1  0  0  0  0
  7  6  2  0  0  0  0
  8  3  2  0  0  0  0
  8  7  1  0  0  0  0
  9  8  1  0  0  0  0
  9 10  1  0  0  0  0
 10 23  1  0  0  0  0
 10 24  1  0  0  0  0
 11 12  1  0  0  0  0
 11 10  1  0  0  0  0
 12 25  1  0  0  0  0
 13 26  1  0  0  0  0
 13 12  2  0  0  0  0
 14 13  1  0  0  0  0
 15 14  2  0  0  0  0
 15 16  1  0  0  0  0
 16 11  2  0  0  0  0
 20  7  1  0  0  0  0
 21  9  1  0  0  0  0
 22  9  1  0  0  0  0
 27 14  1  0  0  0  0
 28 15  1  0  0  0  0
M  END
