1,2,5
q = -1.0

 65 65  0  0  0  0  0  0  0  0999 V2000
    2.2099   -0.7320    0.0856 P   0  0  0  0  0  0  0  0  0  0  0  0
   -2.3237   -0.3537    0.0731 P   0  0  0  0  0  0  0  0  0  0  0  0
    2.2155   -2.2884   -0.6233 O   0  0  0  0  0  0  0  0  0  0  0  0
   -2.5862   -1.8864   -0.6371 O   0  0  0  0  0  0  0  0  0  0  0  0
   -0.1796   -2.0216   -0.6516 C   0  0  0  0  0  3  0  0  0  0  0  0
    0.9671   -2.7954   -0.9286 C   0  0  0  0  0  0  0  0  0  0  0  0
   -1.4374   -2.5941   -0.9359 C   0  0  0  0  0  0  0  0  0  0  0  0
   -1.5613   -3.8727   -1.5072 C   0  0  0  0  0  0  0  0  0  0  0  0
   -2.5590   -4.2816   -1.7188 H   0  0  0  0  0  0  0  0  0  0  0  0
    3.3143    0.1693   -1.1538 C   0  0  0  0  0  0  0  0  0  0  0  0
    3.0248   -1.1150    1.7477 C   0  0  0  0  0  0  0  0  0  0  0  0
    0.8797   -4.0773   -1.4994 C   0  0  0  0  0  0  0  0  0  0  0  0
    1.7967   -4.6469   -1.7047 H   0  0  0  0  0  0  0  0  0  0  0  0
   -0.3922   -4.5992   -1.7869 C   0  0  0  0  0  0  0  0  0  0  0  0
   -0.4748   -5.6014   -2.2340 H   0  0  0  0  0  0  0  0  0  0  0  0
   -3.2371    0.7284   -1.1762 C   0  0  0  0  0  0  0  0  0  0  0  0
    3.5297    1.6226   -0.7007 C   0  0  0  0  0  0  0  0  0  0  0  0
    4.1998    1.6910    0.1762 H   0  0  0  0  0  0  0  0  0  0  0  0
    2.5787    2.1311   -0.4522 H   0  0  0  0  0  0  0  0  0  0  0  0
    4.0045    2.1891   -1.5291 H   0  0  0  0  0  0  0  0  0  0  0  0
    4.2124   -2.0812    1.6189 C   0  0  0  0  0  0  0  0  0  0  0  0
    5.0854   -1.6139    1.1279 H   0  0  0  0  0  0  0  0  0  0  0  0
    3.9353   -2.9900    1.0509 H   0  0  0  0  0  0  0  0  0  0  0  0
    4.5303   -2.3925    2.6364 H   0  0  0  0  0  0  0  0  0  0  0  0
    2.4986    0.1427   -2.4641 C   0  0  0  0  0  0  0  0  0  0  0  0
    3.0572    0.6976   -3.2465 H   0  0  0  0  0  0  0  0  0  0  0  0
    1.5105    0.6273   -2.3394 H   0  0  0  0  0  0  0  0  0  0  0  0
    2.3326   -0.8916   -2.8232 H   0  0  0  0  0  0  0  0  0  0  0  0
    4.6549   -0.5480   -1.3739 C   0  0  0  0  0  0  0  0  0  0  0  0
    5.1645   -0.0935   -2.2497 H   0  0  0  0  0  0  0  0  0  0  0  0
    4.5135   -1.6264   -1.5819 H   0  0  0  0  0  0  0  0  0  0  0  0
    5.3329   -0.4368   -0.5064 H   0  0  0  0  0  0  0  0  0  0  0  0
    3.4331    0.2026    2.4279 C   0  0  0  0  0  0  0  0  0  0  0  0
    3.6763   -0.0025    3.4919 H   0  0  0  0  0  0  0  0  0  0  0  0
    2.6122    0.9507    2.3999 H   0  0  0  0  0  0  0  0  0  0  0  0
    4.3349    0.6456    1.9627 H   0  0  0  0  0  0  0  0  0  0  0  0
   -3.1712    2.2003   -0.7359 C   0  0  0  0  0  0  0  0  0  0  0  0
   -3.5258    2.8397   -1.5714 H   0  0  0  0  0  0  0  0  0  0  0  0
   -2.1413    2.5177   -0.4846 H   0  0  0  0  0  0  0  0  0  0  0  0
   -3.8175    2.4046    0.1376 H   0  0  0  0  0  0  0  0  0  0  0  0
   -2.4429    0.5374   -2.4859 C   0  0  0  0  0  0  0  0  0  0  0  0
   -2.8875    1.1816   -3.2728 H   0  0  0  0  0  0  0  0  0  0  0  0
   -2.4751   -0.5125   -2.8362 H   0  0  0  0  0  0  0  0  0  0  0  0
   -1.3804    0.8271   -2.3653 H   0  0  0  0  0  0  0  0  0  0  0  0
   -4.6900    0.2770   -1.3889 C   0  0  0  0  0  0  0  0  0  0  0  0
   -5.3299    0.5150   -0.5178 H   0  0  0  0  0  0  0  0  0  0  0  0
   -4.7557   -0.8090   -1.5959 H   0  0  0  0  0  0  0  0  0  0  0  0
   -5.1098    0.8187   -2.2629 H   0  0  0  0  0  0  0  0  0  0  0  0
    1.9046   -1.7932    2.5649 C   0  0  0  0  0  0  0  0  0  0  0  0
    2.3085   -2.0850    3.5572 H   0  0  0  0  0  0  0  0  0  0  0  0
    1.5231   -2.7067    2.0664 H   0  0  0  0  0  0  0  0  0  0  0  0
    1.0507   -1.1056    2.7254 H   0  0  0  0  0  0  0  0  0  0  0  0
   -3.2175   -0.5865    1.7230 C   0  0  0  0  0  0  0  0  0  0  0  0
   -3.4551    0.7867    2.3739 C   0  0  0  0  0  0  0  0  0  0  0  0
   -3.7531    0.6349    3.4329 H   0  0  0  0  0  0  0  0  0  0  0  0
   -4.2735    1.3432    1.8773 H   0  0  0  0  0  0  0  0  0  0  0  0
   -2.5373    1.4123    2.3609 H   0  0  0  0  0  0  0  0  0  0  0  0
   -2.2220   -1.3987    2.5782 C   0  0  0  0  0  0  0  0  0  0  0  0
   -1.2867   -0.8314    2.7538 H   0  0  0  0  0  0  0  0  0  0  0  0
   -1.9567   -2.3634    2.1009 H   0  0  0  0  0  0  0  0  0  0  0  0
   -2.6866   -1.6179    3.5627 H   0  0  0  0  0  0  0  0  0  0  0  0
   -4.5255   -1.3801    1.5789 C   0  0  0  0  0  0  0  0  0  0  0  0
   -4.9155   -1.6096    2.5932 H   0  0  0  0  0  0  0  0  0  0  0  0
   -4.3618   -2.3367    1.0470 H   0  0  0  0  0  0  0  0  0  0  0  0
   -5.3081   -0.8125    1.0431 H   0  0  0  0  0  0  0  0  0  0  0  0
  1 11  1  0  0  0  0
  2 53  1  0  0  0  0
  3  1  1  0  0  0  0
  4  2  1  0  0  0  0
  6  5  1  0  0  0  0
  6  3  1  0  0  0  0
  7  5  2  0  0  0  0
  7  4  1  0  0  0  0
  8  7  1  0  0  0  0
  9  8  1  0  0  0  0
 10 17  1  0  0  0  0
 10  1  1  0  0  0  0
 11 33  1  0  0  0  0
 11 49  1  0  0  0  0
 12  6  2  0  0  0  0
 13 12  1  0  0  0  0
 14  8  2  0  0  0  0
 14 12  1  0  0  0  0
 15 14  1  0  0  0  0
 16 37  1  0  0  0  0
 16  2  1  0  0  0  0
 17 19  1  0  0  0  0
 17 18  1  0  0  0  0
 20 17  1  0  0  0  0
 21 11  1  0  0  0  0
 21 24  1  0  0  0  0
 22 21  1  0  0  0  0
 23 21  1  0  0  0  0
 25 27  1  0  0  0  0
 25 10  1  0  0  0  0
 26 25  1  0  0  0  0
 28 25  1  0  0  0  0
 29 10  1  0  0  0  0
 29 32  1  0  0  0  0
 30 29  1  0  0  0  0
 31 29  1  0  0  0  0
 33 34  1  0  0  0  0
 35 33  1  0  0  0  0
 36 33  1  0  0  0  0
 37 39  1  0  0  0  0
 37 40  1  0  0  0  0
 38 37  1  0  0  0  0
 41 44  1  0  0  0  0
 41 16  1  0  0  0  0
 42 41  1  0  0  0  0
 43 41  1  0  0  0  0
 45 16  1  0  0  0  0
 45 46  1  0  0  0  0
 47 45  1  0  0  0  0
 48 45  1  0  0  0  0
 49 52  1  0  0  0  0
 49 50  1  0  0  0  0
 51 49  1  0  0  0  0
 53 54  1  0  0  0  0
 53 58  1  0  0  0  0
 54 55  1  0  0  0  0
 56 54  1  0  0  0  0
 57 54  1  0  0  0  0
 58 59  1  0  0  0  0
 58 61  1  0  0  0  0
 60 58  1  0  0  0  0
 62 53  1  0  0  0  0
 62 63  1  0  0  0  0
 64 62  1  0  0  0  0
 65 62  1  0  0  0  0
M  END
