1,4,8
q = -1.0

 53 53  0  0  0  0  0  0  0  0999 V2000
   -2.0576    1.3933    0.0366 P   0  0  0  0  0  0  0  0  0  0  0  0
   -3.2240    0.5383   -0.8535 O   0  0  0  0  0  0  0  0  0  0  0  0
    0.5478   -2.2768   -1.7679 O   0  0  0  0  0  0  0  0  0  0  0  0
   -1.2798   -0.7888   -1.3326 C   0  0  0  0  0  3  0  0  0  0  0  0
   -2.6339   -0.4735   -1.5923 C   0  0  0  0  0  0  0  0  0  0  0  0
   -1.9373    2.9648   -0.9749 C   0  0  0  0  0  0  0  0  0  0  0  0
   -1.1344    3.5409   -0.4623 H   0  0  0  0  0  0  0  0  0  0  0  0
    1.3081   -1.2970   -0.5883 P   0  0  0  0  0  0  0  0  0  0  0  0
   -1.4449    2.6076   -2.3843 C   0  0  0  0  0  0  0  0  0  0  0  0
   -2.2002    2.0123   -2.9355 H   0  0  0  0  0  0  0  0  0  0  0  0
   -0.5065    2.0223   -2.3489 H   0  0  0  0  0  0  0  0  0  0  0  0
   -1.2529    3.5357   -2.9605 H   0  0  0  0  0  0  0  0  0  0  0  0
   -3.2366    3.7749   -1.0168 C   0  0  0  0  0  0  0  0  0  0  0  0
   -3.1219    4.6245   -1.7215 H   0  0  0  0  0  0  0  0  0  0  0  0
   -3.5105    4.2025   -0.0326 H   0  0  0  0  0  0  0  0  0  0  0  0
   -4.0808    3.1526   -1.3784 H   0  0  0  0  0  0  0  0  0  0  0  0
   -3.0333    1.8641    1.5464 C   0  0  0  0  0  0  0  0  0  0  0  0
   -3.8385    2.5095    1.1349 H   0  0  0  0  0  0  0  0  0  0  0  0
   -2.1448    2.6945    2.4818 C   0  0  0  0  0  0  0  0  0  0  0  0
   -2.7384    3.0414    3.3523 H   0  0  0  0  0  0  0  0  0  0  0  0
   -1.7153    3.5875    1.9852 H   0  0  0  0  0  0  0  0  0  0  0  0
   -1.2992    2.0878    2.8617 H   0  0  0  0  0  0  0  0  0  0  0  0
   -3.6977    0.6772    2.2506 C   0  0  0  0  0  0  0  0  0  0  0  0
   -2.9628    0.0522    2.7896 H   0  0  0  0  0  0  0  0  0  0  0  0
   -4.2411    0.0328    1.5341 H   0  0  0  0  0  0  0  0  0  0  0  0
   -4.4280    1.0628    2.9922 H   0  0  0  0  0  0  0  0  0  0  0  0
   -3.3996   -1.1506   -2.5537 C   0  0  0  0  0  0  0  0  0  0  0  0
   -4.4425   -0.8502   -2.7261 H   0  0  0  0  0  0  0  0  0  0  0  0
   -2.8033   -2.2057   -3.2656 C   0  0  0  0  0  0  0  0  0  0  0  0
   -3.3892   -2.7476   -4.0231 H   0  0  0  0  0  0  0  0  0  0  0  0
   -1.4721   -2.5801   -3.0222 C   0  0  0  0  0  0  0  0  0  0  0  0
   -0.9967   -3.4120   -3.5606 H   0  0  0  0  0  0  0  0  0  0  0  0
   -0.7387   -1.8770   -2.0512 C   0  0  0  0  0  0  0  0  0  0  0  0
    2.0560   -2.6838    0.4188 C   0  0  0  0  0  0  0  0  0  0  0  0
    2.6448   -3.2177   -0.3578 H   0  0  0  0  0  0  0  0  0  0  0  0
    3.0085   -2.1725    1.5013 C   0  0  0  0  0  0  0  0  0  0  0  0
    2.4512   -1.6301    2.2905 H   0  0  0  0  0  0  0  0  0  0  0  0
    3.7898   -1.4951    1.1053 H   0  0  0  0  0  0  0  0  0  0  0  0
    3.5165   -3.0325    1.9847 H   0  0  0  0  0  0  0  0  0  0  0  0
    1.0192   -3.6683    0.9687 C   0  0  0  0  0  0  0  0  0  0  0  0
    1.5408   -4.5934    1.2921 H   0  0  0  0  0  0  0  0  0  0  0  0
    0.2730   -3.9488    0.2016 H   0  0  0  0  0  0  0  0  0  0  0  0
    0.4822   -3.2583    1.8433 H   0  0  0  0  0  0  0  0  0  0  0  0
    2.7244   -0.6548   -1.6275 C   0  0  0  0  0  0  0  0  0  0  0  0
    3.3392   -0.0578   -0.9214 H   0  0  0  0  0  0  0  0  0  0  0  0
    2.1503    0.2873   -2.6929 C   0  0  0  0  0  0  0  0  0  0  0  0
    2.9750    0.7657   -3.2590 H   0  0  0  0  0  0  0  0  0  0  0  0
    1.5385    1.0866   -2.2311 H   0  0  0  0  0  0  0  0  0  0  0  0
    1.5124   -0.2662   -3.4119 H   0  0  0  0  0  0  0  0  0  0  0  0
    3.5841   -1.7599   -2.2506 C   0  0  0  0  0  0  0  0  0  0  0  0
    2.9630   -2.4623   -2.8426 H   0  0  0  0  0  0  0  0  0  0  0  0
    4.1511   -2.3395   -1.4963 H   0  0  0  0  0  0  0  0  0  0  0  0
    4.3278   -1.3043   -2.9366 H   0  0  0  0  0  0  0  0  0  0  0  0
  1 17  1  0  0  0  0
  2  1  1  0  0  0  0
  3  8  1  0  0  0  0
  5  4  1  0  0  0  0
  5  2  1  0  0  0  0
  6  7  1  0  0  0  0
  6  1  1  0  0  0  0
  8 34  1  0  0  0  0
  9 11  1  0  0  0  0
  9  6  1  0  0  0  0
 10  9  1  0  0  0  0
 12  9  1  0  0  0  0
 13  6  1  0  0  0  0
 13 15  1  0  0  0  0
 14 13  1  0  0  0  0
 16 13  1  0  0  0  0
 17 23  1  0  0  0  0
 17 19  1  0  0  0  0
 18 17  1  0  0  0  0
 19 22  1  0  0  0  0
 19 20  1  0  0  0  0
 21 19  1  0  0  0  0
 23 24  1  0  0  0  0
 23 26  1  0  0  0  0
 25 23  1  0  0  0  0
 27  5  2  0  0  0  0
 28 27  1  0  0  0  0
 29 31  2  0  0  0  0
 29 27  1  0  0  0  0
 30 29  1  0  0  0  0
 31 33  1  0  0  0  0
 32 31  1  0  0  0  0
 33  3  1  0  0  0  0
 33  4  2  0  0  0  0
 34 40  1  0  0  0  0
 34 36  1  0  0  0  0
 35 34  1  0  0  0  0
 36 39  1  0  0  0  0
 36 37  1  0  0  0  0
 38 36  1  0  0  0  0
 40 41  1  0  0  0  0
 40 43  1  0  0  0  0
 42 40  1  0  0  0  0
 44 45  1  0  0  0  0
 44  8  1  0  0  0  0
 46 48  1  0  0  0  0
 46 44  1  0  0  0  0
 47 46  1  0  0  0  0
 49 46  1  0  0  0  0
 50 44  1  0  0  0  0
 50 52  1  0  0  0  0
 51 50  1  0  0  0  0
 53 50  1  0  0  0  0
M  END
