1,2,5
q = -1.0, confidence = 0.006

 62 66  0  0  0  0  0  0  0  0999 V2000
   -2.2774    0.0384    0.3694 P   0  0  0  0  0  0  0  0  0  0  0  0
    2.2522    0.2043   -0.3001 P   0  0  0  0  0  0  0  0  0  0  0  0
   -0.2512    5.9450   -0.6953 O   0  0  0  0  0  0  0  0  0  0  0  0
   -1.0755    6.3168   -0.3291 H   0  0  0  0  0  0  0  0  0  0  0  0
   -0.0894    1.7883   -0.1556 C   0  0  0  0  0  3  0  0  0  0  0  0
   -1.2142    2.5189    0.3157 C   0  0  0  0  0  0  0  0  0  0  0  0
   -1.2870    3.9104    0.1339 C   0  0  0  0  0  0  0  0  0  0  0  0
   -2.1679    4.4663    0.4955 H   0  0  0  0  0  0  0  0  0  0  0  0
   -0.2382    4.6045   -0.5009 C   0  0  0  0  0  0  0  0  0  0  0  0
    0.8857    3.8929   -0.9657 C   0  0  0  0  0  0  0  0  0  0  0  0
    1.6920    4.4548   -1.4593 H   0  0  0  0  0  0  0  0  0  0  0  0
    0.9591    2.5017   -0.8076 C   0  0  0  0  0  0  0  0  0  0  0  0
   -2.3237    1.7760    1.0229 C   0  0  0  0  0  0  0  0  0  0  0  0
   -3.3203    2.2407    0.8825 H   0  0  0  0  0  0  0  0  0  0  0  0
   -2.1226    1.7107    2.1148 H   0  0  0  0  0  0  0  0  0  0  0  0
   -3.2005   -1.0276    1.5242 C   0  0  0  0  0  0  0  0  0  0  0  0
   -4.0352   -0.4997    2.5309 C   0  0  0  0  0  0  0  0  0  0  0  0
   -4.1471    0.5874    2.6546 H   0  0  0  0  0  0  0  0  0  0  0  0
   -4.7420   -1.3649    3.3808 C   0  0  0  0  0  0  0  0  0  0  0  0
   -5.3920   -0.9476    4.1642 H   0  0  0  0  0  0  0  0  0  0  0  0
   -4.6246   -2.7550    3.2292 C   0  0  0  0  0  0  0  0  0  0  0  0
   -5.1813   -3.4297    3.8965 H   0  0  0  0  0  0  0  0  0  0  0  0
   -3.7957   -3.2847    2.2259 C   0  0  0  0  0  0  0  0  0  0  0  0
   -3.7035   -4.3746    2.1062 H   0  0  0  0  0  0  0  0  0  0  0  0
   -3.0819   -2.4270    1.3788 C   0  0  0  0  0  0  0  0  0  0  0  0
   -2.4273   -2.8409    0.5966 H   0  0  0  0  0  0  0  0  0  0  0  0
   -3.2581    0.0652   -1.1771 C   0  0  0  0  0  0  0  0  0  0  0  0
   -4.5968   -0.3771   -1.2032 C   0  0  0  0  0  0  0  0  0  0  0  0
   -5.0637   -0.7842   -0.2937 H   0  0  0  0  0  0  0  0  0  0  0  0
   -5.3341   -0.2989   -2.3943 C   0  0  0  0  0  0  0  0  0  0  0  0
   -6.3779   -0.6466   -2.4116 H   0  0  0  0  0  0  0  0  0  0  0  0
   -4.7447    0.2204   -3.5578 C   0  0  0  0  0  0  0  0  0  0  0  0
   -5.3267    0.2792   -4.4898 H   0  0  0  0  0  0  0  0  0  0  0  0
   -3.4105    0.6587   -3.5338 C   0  0  0  0  0  0  0  0  0  0  0  0
   -2.9456    1.0623   -4.4458 H   0  0  0  0  0  0  0  0  0  0  0  0
   -2.6629    0.5763   -2.3509 C   0  0  0  0  0  0  0  0  0  0  0  0
   -1.6141    0.9105   -2.3286 H   0  0  0  0  0  0  0  0  0  0  0  0
    2.1512    1.7355   -1.3395 C   0  0  0  0  0  0  0  0  0  0  0  0
    3.0957    2.3150   -1.3109 H   0  0  0  0  0  0  0  0  0  0  0  0
    1.9897    1.4121   -2.3906 H   0  0  0  0  0  0  0  0  0  0  0  0
    3.2023   -1.0843   -1.1808 C   0  0  0  0  0  0  0  0  0  0  0  0
    4.2073   -1.8332   -0.5335 C   0  0  0  0  0  0  0  0  0  0  0  0
    4.5166   -1.5713    0.4892 H   0  0  0  0  0  0  0  0  0  0  0  0
    4.8180   -2.9105   -1.1960 C   0  0  0  0  0  0  0  0  0  0  0  0
    5.6096   -3.4822   -0.6885 H   0  0  0  0  0  0  0  0  0  0  0  0
    4.4297   -3.2507   -2.5019 C   0  0  0  0  0  0  0  0  0  0  0  0
    4.9169   -4.0892   -3.0219 H   0  0  0  0  0  0  0  0  0  0  0  0
    3.4212   -2.5129   -3.1472 C   0  0  0  0  0  0  0  0  0  0  0  0
    3.1141   -2.7748   -4.1708 H   0  0  0  0  0  0  0  0  0  0  0  0
    2.8038   -1.4408   -2.4888 C   0  0  0  0  0  0  0  0  0  0  0  0
    1.9977   -0.8856   -2.9944 H   0  0  0  0  0  0  0  0  0  0  0  0
    3.2024    0.6568    1.1874 C   0  0  0  0  0  0  0  0  0  0  0  0
    4.5284    1.1303    1.0787 C   0  0  0  0  0  0  0  0  0  0  0  0
    5.0151    1.2047    0.0934 H   0  0  0  0  0  0  0  0  0  0  0  0
    5.2323    1.5024    2.2319 C   0  0  0  0  0  0  0  0  0  0  0  0
    6.2649    1.8725    2.1463 H   0  0  0  0  0  0  0  0  0  0  0  0
    4.6198    1.4060    3.4934 C   0  0  0  0  0  0  0  0  0  0  0  0
    5.1757    1.7012    4.3959 H   0  0  0  0  0  0  0  0  0  0  0  0
    3.3015    0.9379    3.6038 C   0  0  0  0  0  0  0  0  0  0  0  0
    2.8213    0.8667    4.5910 H   0  0  0  0  0  0  0  0  0  0  0  0
    2.5904    0.5639    2.4533 C   0  0  0  0  0  0  0  0  0  0  0  0
    1.5508    0.2066    2.5255 H   0  0  0  0  0  0  0  0  0  0  0  0
  1 13  1  0  0  0  0
  1 16  1  0  0  0  0
  2 52  1  0  0  0  0
  3  9  1  0  0  0  0
  3  4  1  0  0  0  0
  5  6  1  0  0  0  0
  6 13  1  0  0  0  0
  7  6  2  0  0  0  0
  7  8  1  0  0  0  0
  9  7  1  0  0  0  0
 10 12  1  0  0  0  0
 10  9  2  0  0  0  0
 11 10  1  0  0  0  0
 12  5  2  0  0  0  0
 13 15  1  0  0  0  0
 14 13  1  0  0  0  0
 16 17  1  0  0  0  0
 17 18  1  0  0  0  0
 17 19  2  0  0  0  0
 19 20  1  0  0  0  0
 21 19  1  0  0  0  0
 21 22  1  0  0  0  0
 23 21  2  0  0  0  0
 24 23  1  0  0  0  0
 25 16  2  0  0  0  0
 25 23  1  0  0  0  0
 26 25  1  0  0  0  0
 27  1  1  0  0  0  0
 28 27  1  0  0  0  0
 28 29  1  0  0  0  0
 30 28  2  0  0  0  0
 31 30  1  0  0  0  0
 32 34  2  0  0  0  0
 32 30  1  0  0  0  0
 33 32  1  0  0  0  0
 34 36  1  0  0  0  0
 35 34  1  0  0  0  0
 36 37  1  0  0  0  0
 36 27  2  0  0  0  0
 38 39  1  0  0  0  0
 38 12  1  0  0  0  0
 38  2  1  0  0  0  0
 40 38  1  0  0  0  0
 41 42  1  0  0  0  0
 41  2  1  0  0  0  0
 42 43  1  0  0  0  0
 44 45  1  0  0  0  0
 44 42  2  0  0  0  0
 46 44  1  0  0  0  0
 47 46  1  0  0  0  0
 48 46  2  0  0  0  0
 48 50  1  0  0  0  0
 49 48  1  0  0  0  0
 50 41  2  0  0  0  0
 51 50  1  0  0  0  0
 52 61  1  0  0  0  0
 53 52  2  0  0  0  0
 53 55  1  0  0  0  0
 54 53  1  0  0  0  0
 55 57  2  0  0  0  0
 56 55  1  0  0  0  0
 57 59  1  0  0  0  0
 57 58  1  0  0  0  0
 59 60  1  0  0  0  0
 61 62  1  0  0  0  0
 61 59  2  0  0  0  0
M  END
