1,2,3
q = -1.0

 33 33  0  0  0  0  0  0  0  0999 V2000
   -0.0092    1.7105   -0.0369 C   0  0  0  0  0  3  0  0  0  0  0  0
   -2.2415   -0.0101    0.0575 P   0  0  0  0  0  0  0  0  0  0  0  0
    2.2421    0.0155   -0.2555 P   0  0  0  0  0  0  0  0  0  0  0  0
    1.1300    2.4627   -0.4262 C   0  0  0  0  0  0  0  0  0  0  0  0
    1.1193    3.8685   -0.3613 C   0  0  0  0  0  0  0  0  0  0  0  0
    2.0150    4.4376   -0.6555 H   0  0  0  0  0  0  0  0  0  0  0  0
   -0.0297    4.5460    0.0682 C   0  0  0  0  0  0  0  0  0  0  0  0
   -0.0378    5.6453    0.1096 H   0  0  0  0  0  0  0  0  0  0  0  0
   -1.1676    3.8207    0.4502 C   0  0  0  0  0  0  0  0  0  0  0  0
   -2.0683    4.3527    0.7940 H   0  0  0  0  0  0  0  0  0  0  0  0
   -1.1587    2.4155    0.4112 C   0  0  0  0  0  0  0  0  0  0  0  0
   -2.3591    1.6230    0.8871 C   0  0  0  0  0  0  0  0  0  0  0  0
   -2.2479    1.3778    1.9674 H   0  0  0  0  0  0  0  0  0  0  0  0
   -3.3388    2.1092    0.7139 H   0  0  0  0  0  0  0  0  0  0  0  0
   -3.4952   -1.1627    0.9249 C   0  0  0  0  0  0  0  0  0  0  0  0
   -2.9673   -1.7347    2.0072 F   0  0  0  0  0  0  0  0  0  0  0  0
   -3.8745   -2.1305    0.0639 F   0  0  0  0  0  0  0  0  0  0  0  0
   -4.5902   -0.4650    1.2946 F   0  0  0  0  0  0  0  0  0  0  0  0
   -3.1454    0.2583   -1.5996 C   0  0  0  0  0  0  0  0  0  0  0  0
   -4.4473    0.5628   -1.4025 F   0  0  0  0  0  0  0  0  0  0  0  0
   -3.0759   -0.8373   -2.3731 F   0  0  0  0  0  0  0  0  0  0  0  0
   -2.5690    1.2849   -2.2507 F   0  0  0  0  0  0  0  0  0  0  0  0
    2.3547    1.7254   -0.9277 C   0  0  0  0  0  0  0  0  0  0  0  0
    3.3181    2.2027   -0.6591 H   0  0  0  0  0  0  0  0  0  0  0  0
    2.3332    1.6128   -2.0351 H   0  0  0  0  0  0  0  0  0  0  0  0
    3.3193   -1.0325   -1.4235 C   0  0  0  0  0  0  0  0  0  0  0  0
    4.4706   -0.4068   -1.7380 F   0  0  0  0  0  0  0  0  0  0  0  0
    3.6107   -2.2144   -0.8515 F   0  0  0  0  0  0  0  0  0  0  0  0
    2.6423   -1.2579   -2.5654 F   0  0  0  0  0  0  0  0  0  0  0  0
    3.3432    0.0617    1.3043 C   0  0  0  0  0  0  0  0  0  0  0  0
    2.9303    1.0544    2.1016 F   0  0  0  0  0  0  0  0  0  0  0  0
    3.2994   -1.1012    1.9621 F   0  0  0  0  0  0  0  0  0  0  0  0
    4.6314    0.3088    0.9573 F   0  0  0  0  0  0  0  0  0  0  0  0
  1 11  1  0  0  0  0
  2 12  1  0  0  0  0
  2 15  1  0  0  0  0
  3 30  1  0  0  0  0
  4  5  1  0  0  0  0
  4  1  2  0  0  0  0
  5  7  2  0  0  0  0
  6  5  1  0  0  0  0
  7  8  1  0  0  0  0
  7  9  1  0  0  0  0
  9 10  1  0  0  0  0
 11  9  2  0  0  0  0
 11 12  1  0  0  0  0
 12 13  1  0  0  0  0
 14 12  1  0  0  0  0
 15 18  1  0  0  0  0
 15 16  1  0  0  0  0
 17 15  1  0  0  0  0
 19 20  1  0  0  0  0
 19  2  1  0  0  0  0
 21 19  1  0  0  0  0
 22 19  1  0  0  0  0
 23 24  1  0  0  0  0
 23  4  1  0  0  0  0
 23  3  1  0  0  0  0
 25 23  1  0  0  0  0
 26 28  1  0  0  0  0
 26  3  1  0  0  0  0
 27 26  1  0  0  0  0
 29 26  1  0  0  0  0
 30 32  1  0  0  0  0
 30 31  1  0  0  0  0
 33 30  1  0  0  0  0
M  END
