1,2,3
q = -1.0

 63 68  0  0  0  0  0  0  0  0999 V2000
    2.2096    0.3462   -0.1518 P   0  0  0  0  0  0  0  0  0  0  0  0
   -1.9669   -0.1039   -0.1972 P   0  0  0  0  0  0  0  0  0  0  0  0
    0.0747    2.0467   -0.6295 C   0  0  0  0  0  3  0  0  0  0  0  0
    1.2971    2.7319   -0.3335 C   0  0  0  0  0  0  0  0  0  0  0  0
    1.4393    4.1257   -0.2706 C   0  0  0  0  0  0  0  0  0  0  0  0
    0.3155    4.9273   -0.4869 C   0  0  0  0  0  0  0  0  0  0  0  0
   -0.9087    4.3270   -0.7881 C   0  0  0  0  0  0  0  0  0  0  0  0
   -1.0218    2.9215   -0.8875 C   0  0  0  0  0  0  0  0  0  0  0  0
   -2.9146    1.2260   -0.9572 C   0  0  0  0  0  0  0  0  0  0  0  0
   -3.2866    3.1702   -1.9440 C   0  0  0  0  0  0  0  0  0  0  0  0
   -4.4150    2.3660   -1.9969 C   0  0  0  0  0  0  0  0  0  0  0  0
    2.6071   -0.1243    1.5681 C   0  0  0  0  0  0  0  0  0  0  0  0
    2.3870    0.8046    2.6054 C   0  0  0  0  0  0  0  0  0  0  0  0
    2.5750    0.4173    3.9405 C   0  0  0  0  0  0  0  0  0  0  0  0
    2.9772   -0.8934    4.2451 C   0  0  0  0  0  0  0  0  0  0  0  0
    3.1958   -1.8189    3.2106 C   0  0  0  0  0  0  0  0  0  0  0  0
    3.0089   -1.4411    1.8737 C   0  0  0  0  0  0  0  0  0  0  0  0
    3.6090   -0.2276   -1.1613 C   0  0  0  0  0  0  0  0  0  0  0  0
    4.9364   -0.0266   -0.7299 C   0  0  0  0  0  0  0  0  0  0  0  0
    6.0003   -0.4127   -1.5568 C   0  0  0  0  0  0  0  0  0  0  0  0
    5.7427   -1.0037   -2.8055 C   0  0  0  0  0  0  0  0  0  0  0  0
    4.4204   -1.2080   -3.2317 C   0  0  0  0  0  0  0  0  0  0  0  0
    3.3506   -0.8185   -2.4133 C   0  0  0  0  0  0  0  0  0  0  0  0
   -2.8707   -1.6116   -0.7000 C   0  0  0  0  0  0  0  0  0  0  0  0
   -3.2643   -1.7822   -2.0422 C   0  0  0  0  0  0  0  0  0  0  0  0
   -3.8750   -2.9768   -2.4442 C   0  0  0  0  0  0  0  0  0  0  0  0
   -4.0881   -4.0103   -1.5168 C   0  0  0  0  0  0  0  0  0  0  0  0
   -3.6855   -3.8459   -0.1832 C   0  0  0  0  0  0  0  0  0  0  0  0
   -3.0743   -2.6516    0.2265 C   0  0  0  0  0  0  0  0  0  0  0  0
   -2.2495    0.0377    1.6120 C   0  0  0  0  0  0  0  0  0  0  0  0
   -1.1904   -0.2388    2.4982 C   0  0  0  0  0  0  0  0  0  0  0  0
   -1.3963   -0.1385    3.8824 C   0  0  0  0  0  0  0  0  0  0  0  0
   -2.6529    0.2411    4.3799 C   0  0  0  0  0  0  0  0  0  0  0  0
   -3.7093    0.5162    3.4939 C   0  0  0  0  0  0  0  0  0  0  0  0
   -3.5130    0.4153    2.1091 C   0  0  0  0  0  0  0  0  0  0  0  0
   -2.3210    2.4401   -1.2686 N   0  0  0  0  0  0  0  0  0  0  0  0
   -4.1764    1.1650   -1.3811 N   0  0  0  0  0  0  0  0  0  0  0  0
    2.4554    2.0183   -0.0876 O   0  0  0  0  0  0  0  0  0  0  0  0
    2.4270    4.5486   -0.0403 H   0  0  0  0  0  0  0  0  0  0  0  0
    0.3892    6.0222   -0.4138 H   0  0  0  0  0  0  0  0  0  0  0  0
   -1.8003    4.9534   -0.9200 H   0  0  0  0  0  0  0  0  0  0  0  0
   -3.0815    4.1617   -2.3550 H   0  0  0  0  0  0  0  0  0  0  0  0
   -5.3811    2.5957   -2.4640 H   0  0  0  0  0  0  0  0  0  0  0  0
    2.0679    1.8288    2.3633 H   0  0  0  0  0  0  0  0  0  0  0  0
    2.4050    1.1461    4.7476 H   0  0  0  0  0  0  0  0  0  0  0  0
    3.1224   -1.1957    5.2935 H   0  0  0  0  0  0  0  0  0  0  0  0
    3.5102   -2.8467    3.4465 H   0  0  0  0  0  0  0  0  0  0  0  0
    3.1555   -2.1701    1.0632 H   0  0  0  0  0  0  0  0  0  0  0  0
    5.1328    0.4312    0.2517 H   0  0  0  0  0  0  0  0  0  0  0  0
    7.0374   -0.2548   -1.2239 H   0  0  0  0  0  0  0  0  0  0  0  0
    6.5809   -1.3110   -3.4494 H   0  0  0  0  0  0  0  0  0  0  0  0
    4.2198   -1.6773   -4.2065 H   0  0  0  0  0  0  0  0  0  0  0  0
    2.3087   -0.9909   -2.7224 H   0  0  0  0  0  0  0  0  0  0  0  0
   -3.1059   -0.9744   -2.7707 H   0  0  0  0  0  0  0  0  0  0  0  0
   -4.1893   -3.1011   -3.4916 H   0  0  0  0  0  0  0  0  0  0  0  0
   -4.5684   -4.9475   -1.8368 H   0  0  0  0  0  0  0  0  0  0  0  0
   -3.8450   -4.6536    0.5471 H   0  0  0  0  0  0  0  0  0  0  0  0
   -2.7543   -2.5274    1.2714 H   0  0  0  0  0  0  0  0  0  0  0  0
   -0.2091   -0.5378    2.0995 H   0  0  0  0  0  0  0  0  0  0  0  0
   -0.5635   -0.3530    4.5695 H   0  0  0  0  0  0  0  0  0  0  0  0
   -2.8125    0.3250    5.4659 H   0  0  0  0  0  0  0  0  0  0  0  0
   -4.6942    0.8135    3.8852 H   0  0  0  0  0  0  0  0  0  0  0  0
   -4.3337    0.6268    1.4054 H   0  0  0  0  0  0  0  0  0  0  0  0
  1 38  1  0  0  0  0
  1 12  1  0  0  0  0
  2 30  1  0  0  0  0
  3  4  1  0  0  0  0
  4  5  2  0  0  0  0
  4 38  1  0  0  0  0
  5 39  1  0  0  0  0
  6 40  1  0  0  0  0
  6  5  1  0  0  0  0
  7  6  2  0  0  0  0
  8  7  1  0  0  0  0
  8  3  2  0  0  0  0
  9  2  1  0  0  0  0
 10 36  1  0  0  0  0
 11 10  2  0  0  0  0
 11 37  1  0  0  0  0
 12 17  2  0  0  0  0
 12 13  1  0  0  0  0
 13 14  2  0  0  0  0
 14 15  1  0  0  0  0
 14 45  1  0  0  0  0
 15 46  1  0  0  0  0
 16 47  1  0  0  0  0
 16 15  2  0  0  0  0
 17 16  1  0  0  0  0
 18 19  1  0  0  0  0
 18  1  1  0  0  0  0
 19 49  1  0  0  0  0
 20 50  1  0  0  0  0
 20 19  2  0  0  0  0
 21 20  1  0  0  0  0
 22 21  2  0  0  0  0
 22 23  1  0  0  0  0
 23 18  2  0  0  0  0
 24  2  1  0  0  0  0
 24 29  1  0  0  0  0
 25 24  2  0  0  0  0
 26 25  1  0  0  0  0
 26 27  2  0  0  0  0
 27 28  1  0  0  0  0
 28 29  2  0  0  0  0
 28 57  1  0  0  0  0
 29 58  1  0  0  0  0
 30 35  2  0  0  0  0
 30 31  1  0  0  0  0
 31 32  2  0  0  0  0
 32 33  1  0  0  0  0
 32 60  1  0  0  0  0
 33 61  1  0  0  0  0
 34 62  1  0  0  0  0
 34 33  2  0  0  0  0
 35 34  1  0  0  0  0
 36  9  1  0  0  0  0
 36  8  1  0  0  0  0
 37  9  2  0  0  0  0
 41  7  1  0  0  0  0
 42 10  1  0  0  0  0
 43 11  1  0  0  0  0
 44 13  1  0  0  0  0
 48 17  1  0  0  0  0
 51 21  1  0  0  0  0
 52 22  1  0  0  0  0
 53 23  1  0  0  0  0
 54 25  1  0  0  0  0
 55 26  1  0  0  0  0
 56 27  1  0  0  0  0
 59 31  1  0  0  0  0
 63 35  1  0  0  0  0
M  END
