1,2,3
q = -1.0

 67 73  0  0  0  0  0  0  0  0999 V2000
   -2.2840   -0.1086    0.0380 P   0  0  0  0  0  0  0  0  0  0  0  0
    2.2841   -0.1086    0.0381 P   0  0  0  0  0  0  0  0  0  0  0  0
    0.0000    1.6599   -0.0791 C   0  0  0  0  0  3  0  0  0  0  0  0
    1.2225    2.3961   -0.1452 C   0  0  0  0  0  0  0  0  0  0  0  0
    2.4819    1.7100   -0.0600 C   0  0  0  0  0  0  0  0  0  0  0  0
    3.6845    2.3994   -0.0415 C   0  0  0  0  0  0  0  0  0  0  0  0
    4.6372    1.8584    0.0683 H   0  0  0  0  0  0  0  0  0  0  0  0
    3.6829    3.8218   -0.1535 C   0  0  0  0  0  0  0  0  0  0  0  0
    4.6397    4.3654   -0.1435 H   0  0  0  0  0  0  0  0  0  0  0  0
    2.4921    4.5170   -0.2695 C   0  0  0  0  0  0  0  0  0  0  0  0
    2.4987    5.6152   -0.3536 H   0  0  0  0  0  0  0  0  0  0  0  0
    1.2263    3.8429   -0.2601 C   0  0  0  0  0  0  0  0  0  0  0  0
    0.0001    4.5353   -0.3234 C   0  0  0  0  0  0  0  0  0  0  0  0
    0.0001    5.6340   -0.3989 H   0  0  0  0  0  0  0  0  0  0  0  0
   -1.2261    3.8429   -0.2602 C   0  0  0  0  0  0  0  0  0  0  0  0
   -2.4920    4.5171   -0.2699 C   0  0  0  0  0  0  0  0  0  0  0  0
   -2.4985    5.6153   -0.3540 H   0  0  0  0  0  0  0  0  0  0  0  0
   -3.6827    3.8218   -0.1540 C   0  0  0  0  0  0  0  0  0  0  0  0
   -4.6396    4.3654   -0.1442 H   0  0  0  0  0  0  0  0  0  0  0  0
   -3.6845    2.3994   -0.0420 C   0  0  0  0  0  0  0  0  0  0  0  0
   -4.6372    1.8584    0.0677 H   0  0  0  0  0  0  0  0  0  0  0  0
   -2.4818    1.7100   -0.0604 C   0  0  0  0  0  0  0  0  0  0  0  0
   -1.2224    2.3961   -0.1454 C   0  0  0  0  0  0  0  0  0  0  0  0
   -2.9932   -0.8465   -1.4811 C   0  0  0  0  0  0  0  0  0  0  0  0
   -3.7527   -0.1137   -2.4129 C   0  0  0  0  0  0  0  0  0  0  0  0
   -3.9356    0.9592   -2.2537 H   0  0  0  0  0  0  0  0  0  0  0  0
   -4.2648   -0.7545   -3.5528 C   0  0  0  0  0  0  0  0  0  0  0  0
   -4.8563   -0.1791   -4.2811 H   0  0  0  0  0  0  0  0  0  0  0  0
   -4.0191   -2.1197   -3.7649 C   0  0  0  0  0  0  0  0  0  0  0  0
   -4.4211   -2.6183   -4.6601 H   0  0  0  0  0  0  0  0  0  0  0  0
   -3.2485   -2.8462   -2.8409 C   0  0  0  0  0  0  0  0  0  0  0  0
   -3.0397   -3.9130   -3.0135 H   0  0  0  0  0  0  0  0  0  0  0  0
   -2.7282   -2.2165   -1.7024 C   0  0  0  0  0  0  0  0  0  0  0  0
   -2.0892   -2.7692   -0.9918 H   0  0  0  0  0  0  0  0  0  0  0  0
   -3.3607   -0.6912    1.3965 C   0  0  0  0  0  0  0  0  0  0  0  0
   -4.7175   -1.0083    1.1861 C   0  0  0  0  0  0  0  0  0  0  0  0
   -5.1439   -0.9556    0.1723 H   0  0  0  0  0  0  0  0  0  0  0  0
   -5.5153   -1.4091    2.2684 C   0  0  0  0  0  0  0  0  0  0  0  0
   -6.5746   -1.6582    2.1034 H   0  0  0  0  0  0  0  0  0  0  0  0
   -4.9618   -1.5016    3.5557 C   0  0  0  0  0  0  0  0  0  0  0  0
   -5.5889   -1.8225    4.4014 H   0  0  0  0  0  0  0  0  0  0  0  0
   -3.6059   -1.1987    3.7625 C   0  0  0  0  0  0  0  0  0  0  0  0
   -3.1675   -1.2865    4.7680 H   0  0  0  0  0  0  0  0  0  0  0  0
   -2.8026   -0.7975    2.6861 C   0  0  0  0  0  0  0  0  0  0  0  0
   -1.7330   -0.5775    2.8280 H   0  0  0  0  0  0  0  0  0  0  0  0
    2.9930   -0.8462   -1.4813 C   0  0  0  0  0  0  0  0  0  0  0  0
    3.7520   -0.1130   -2.4132 C   0  0  0  0  0  0  0  0  0  0  0  0
    3.9347    0.9599   -2.2538 H   0  0  0  0  0  0  0  0  0  0  0  0
    4.2637   -0.7535   -3.5534 C   0  0  0  0  0  0  0  0  0  0  0  0
    4.8549   -0.1778   -4.2819 H   0  0  0  0  0  0  0  0  0  0  0  0
    4.0182   -2.1186   -3.7658 C   0  0  0  0  0  0  0  0  0  0  0  0
    4.4199   -2.6170   -4.6613 H   0  0  0  0  0  0  0  0  0  0  0  0
    3.2480   -2.8455   -2.8417 C   0  0  0  0  0  0  0  0  0  0  0  0
    3.0394   -3.9123   -3.0145 H   0  0  0  0  0  0  0  0  0  0  0  0
    2.7281   -2.2162   -1.7028 C   0  0  0  0  0  0  0  0  0  0  0  0
    2.0895   -2.7692   -0.9921 H   0  0  0  0  0  0  0  0  0  0  0  0
    3.3609   -0.6916    1.3963 C   0  0  0  0  0  0  0  0  0  0  0  0
    4.7176   -1.0088    1.1856 C   0  0  0  0  0  0  0  0  0  0  0  0
    5.1439   -0.9559    0.1718 H   0  0  0  0  0  0  0  0  0  0  0  0
    5.5156   -1.4099    2.2677 C   0  0  0  0  0  0  0  0  0  0  0  0
    6.5748   -1.6591    2.1025 H   0  0  0  0  0  0  0  0  0  0  0  0
    4.9622   -1.5026    3.5551 C   0  0  0  0  0  0  0  0  0  0  0  0
    5.5894   -1.8239    4.4007 H   0  0  0  0  0  0  0  0  0  0  0  0
    3.6063   -1.1996    3.7621 C   0  0  0  0  0  0  0  0  0  0  0  0
    3.1681   -1.2876    4.7677 H   0  0  0  0  0  0  0  0  0  0  0  0
    2.8030   -0.7982    2.6859 C   0  0  0  0  0  0  0  0  0  0  0  0
    1.7334   -0.5781    2.8281 H   0  0  0  0  0  0  0  0  0  0  0  0
  1 35  1  0  0  0  0
  2 57  1  0  0  0  0
  4  3  1  0  0  0  0
  4  5  1  0  0  0  0
  5  6  2  0  0  0  0
  5  2  1  0  0  0  0
  6  7  1  0  0  0  0
  8  9  1  0  0  0  0
  8  6  1  0  0  0  0
 10 12  1  0  0  0  0
 10  8  2  0  0  0  0
 11 10  1  0  0  0  0
 12  4  2  0  0  0  0
 13 15  2  0  0  0  0
 13 12  1  0  0  0  0
 14 13  1  0  0  0  0
 15 23  1  0  0  0  0
 16 15  1  0  0  0  0
 16 18  2  0  0  0  0
 17 16  1  0  0  0  0
 18 19  1  0  0  0  0
 18 20  1  0  0  0  0
 20 21  1  0  0  0  0
 22 20  2  0  0  0  0
 22  1  1  0  0  0  0
 23  3  2  0  0  0  0
 23 22  1  0  0  0  0
 24  1  1  0  0  0  0
 25 26  1  0  0  0  0
 25 24  2  0  0  0  0
 27 25  1  0  0  0  0
 28 27  1  0  0  0  0
 29 27  2  0  0  0  0
 29 31  1  0  0  0  0
 30 29  1  0  0  0  0
 31 33  2  0  0  0  0
 32 31  1  0  0  0  0
 33 24  1  0  0  0  0
 33 34  1  0  0  0  0
 35 44  1  0  0  0  0
 36 35  2  0  0  0  0
 36 38  1  0  0  0  0
 37 36  1  0  0  0  0
 38 40  2  0  0  0  0
 39 38  1  0  0  0  0
 40 42  1  0  0  0  0
 40 41  1  0  0  0  0
 42 43  1  0  0  0  0
 44 45  1  0  0  0  0
 44 42  2  0  0  0  0
 46  2  1  0  0  0  0
 47 48  1  0  0  0  0
 47 46  2  0  0  0  0
 49 47  1  0  0  0  0
 50 49  1  0  0  0  0
 51 49  2  0  0  0  0
 51 53  1  0  0  0  0
 52 51  1  0  0  0  0
 53 55  2  0  0  0  0
 54 53  1  0  0  0  0
 55 46  1  0  0  0  0
 55 56  1  0  0  0  0
 57 66  1  0  0  0  0
 58 57  2  0  0  0  0
 58 60  1  0  0  0  0
 59 58  1  0  0  0  0
 60 62  2  0  0  0  0
 61 60  1  0  0  0  0
 62 64  1  0  0  0  0
 62 63  1  0  0  0  0
 64 65  1  0  0  0  0
 66 67  1  0  0  0  0
 66 64  2  0  0  0  0
M  END
