1,2,9
q = -1.0

 56 55  0  0  0  0  0  0  0  0999 V2000
    2.1275    0.0748    0.1328 P   0  0  0  0  0  0  0  0  0  0  0  0
   -2.1351   -0.0101    0.0271 P   0  0  0  0  0  0  0  0  0  0  0  0
    2.4751   -0.5123    1.8699 C   0  0  0  0  0  0  0  0  0  0  0  0
    3.3716   -1.1626    1.9366 H   0  0  0  0  0  0  0  0  0  0  0  0
    2.6891    0.3956    2.4733 H   0  0  0  0  0  0  0  0  0  0  0  0
    1.1825   -1.1763    2.3473 C   0  0  0  0  0  0  0  0  0  0  0  0
    1.2130   -1.3178    3.4556 H   0  0  0  0  0  0  0  0  0  0  0  0
    1.1127   -2.2012    1.9187 H   0  0  0  0  0  0  0  0  0  0  0  0
   -0.0471   -0.3691    1.9055 C   0  0  0  0  0  3  0  0  0  0  0  0
    0.0144    0.6460    2.3828 H   0  0  0  0  0  0  0  0  0  0  0  0
   -1.3427   -1.0361    2.3964 C   0  0  0  0  0  0  0  0  0  0  0  0
   -1.3305   -2.1060    2.0949 H   0  0  0  0  0  0  0  0  0  0  0  0
   -1.4076   -1.0431    3.5115 H   0  0  0  0  0  0  0  0  0  0  0  0
   -2.5795   -0.3552    1.8036 C   0  0  0  0  0  0  0  0  0  0  0  0
   -2.7402    0.6337    2.2848 H   0  0  0  0  0  0  0  0  0  0  0  0
   -3.5199   -0.9347    1.9175 H   0  0  0  0  0  0  0  0  0  0  0  0
    3.1883    1.6225   -0.0129 C   0  0  0  0  0  0  0  0  0  0  0  0
    4.1434    1.3876    0.5097 H   0  0  0  0  0  0  0  0  0  0  0  0
    2.9348   -1.1718   -1.0138 C   0  0  0  0  0  0  0  0  0  0  0  0
    2.8259   -0.6915   -2.0113 H   0  0  0  0  0  0  0  0  0  0  0  0
   -3.1609    1.4844   -0.4573 C   0  0  0  0  0  0  0  0  0  0  0  0
   -3.0075    1.5650   -1.5554 H   0  0  0  0  0  0  0  0  0  0  0  0
   -2.9048   -1.4309   -0.9350 C   0  0  0  0  0  0  0  0  0  0  0  0
   -3.9917   -1.4034   -0.6962 H   0  0  0  0  0  0  0  0  0  0  0  0
    2.4785    2.7604    0.7340 C   0  0  0  0  0  0  0  0  0  0  0  0
    3.1077    3.6750    0.7428 H   0  0  0  0  0  0  0  0  0  0  0  0
    2.2501    2.4974    1.7865 H   0  0  0  0  0  0  0  0  0  0  0  0
    1.5154    3.0051    0.2411 H   0  0  0  0  0  0  0  0  0  0  0  0
    3.4920    2.0117   -1.4637 C   0  0  0  0  0  0  0  0  0  0  0  0
    2.5588    2.1656   -2.0406 H   0  0  0  0  0  0  0  0  0  0  0  0
    4.0961    1.2476   -1.9912 H   0  0  0  0  0  0  0  0  0  0  0  0
    4.0658    2.9619   -1.4898 H   0  0  0  0  0  0  0  0  0  0  0  0
    2.1137   -2.4673   -1.0278 C   0  0  0  0  0  0  0  0  0  0  0  0
    2.5149   -3.1756   -1.7829 H   0  0  0  0  0  0  0  0  0  0  0  0
    1.0520   -2.2583   -1.2708 H   0  0  0  0  0  0  0  0  0  0  0  0
    2.1413   -2.9781   -0.0431 H   0  0  0  0  0  0  0  0  0  0  0  0
    4.4188   -1.4251   -0.7363 C   0  0  0  0  0  0  0  0  0  0  0  0
    4.5693   -1.9064    0.2521 H   0  0  0  0  0  0  0  0  0  0  0  0
    5.0208   -0.4948   -0.7531 H   0  0  0  0  0  0  0  0  0  0  0  0
    4.8437   -2.1109   -1.4996 H   0  0  0  0  0  0  0  0  0  0  0  0
   -4.6573    1.3435   -0.1657 C   0  0  0  0  0  0  0  0  0  0  0  0
   -4.8493    1.2258    0.9210 H   0  0  0  0  0  0  0  0  0  0  0  0
   -5.1111    0.4764   -0.6861 H   0  0  0  0  0  0  0  0  0  0  0  0
   -5.2047    2.2507   -0.4987 H   0  0  0  0  0  0  0  0  0  0  0  0
   -2.5503    2.7335    0.1904 C   0  0  0  0  0  0  0  0  0  0  0  0
   -3.0719    3.6497   -0.1571 H   0  0  0  0  0  0  0  0  0  0  0  0
   -1.4746    2.8233   -0.0601 H   0  0  0  0  0  0  0  0  0  0  0  0
   -2.6358    2.7029    1.2970 H   0  0  0  0  0  0  0  0  0  0  0  0
   -2.3339   -2.7741   -0.4635 C   0  0  0  0  0  0  0  0  0  0  0  0
   -2.7444   -3.6012   -1.0800 H   0  0  0  0  0  0  0  0  0  0  0  0
   -2.5817   -2.9902    0.5935 H   0  0  0  0  0  0  0  0  0  0  0  0
   -1.2283   -2.7901   -0.5618 H   0  0  0  0  0  0  0  0  0  0  0  0
   -2.7142   -1.2527   -2.4448 C   0  0  0  0  0  0  0  0  0  0  0  0
   -1.6372   -1.2548   -2.7066 H   0  0  0  0  0  0  0  0  0  0  0  0
   -3.1485   -0.3054   -2.8217 H   0  0  0  0  0  0  0  0  0  0  0  0
   -3.2044   -2.0856   -2.9913 H   0  0  0  0  0  0  0  0  0  0  0  0
  1  3  1  0  0  0  0
  2 14  1  0  0  0  0
  3  4  1  0  0  0  0
  3  6  1  0  0  0  0
  3  5  1  0  0  0  0
  6  7  1  0  0  0  0
  8  6  1  0  0  0  0
  9  6  1  0  0  0  0
  9 10  1  0  0  0  0
  9 11  1  0  0  0  0
 11 13  1  0  0  0  0
 12 11  1  0  0  0  0
 14 16  1  0  0  0  0
 14 15  1  0  0  0  0
 14 11  1  0  0  0  0
 17  1  1  0  0  0  0
 17 18  1  0  0  0  0
 17 25  1  0  0  0  0
 19 37  1  0  0  0  0
 19  1  1  0  0  0  0
 20 19  1  0  0  0  0
 21 41  1  0  0  0  0
 21  2  1  0  0  0  0
 21 45  1  0  0  0  0
 22 21  1  0  0  0  0
 23 24  1  0  0  0  0
 23 49  1  0  0  0  0
 23  2  1  0  0  0  0
 25 26  1  0  0  0  0
 25 27  1  0  0  0  0
 28 25  1  0  0  0  0
 29 17  1  0  0  0  0
 30 29  1  0  0  0  0
 31 29  1  0  0  0  0
 32 29  1  0  0  0  0
 33 19  1  0  0  0  0
 33 36  1  0  0  0  0
 34 33  1  0  0  0  0
 35 33  1  0  0  0  0
 37 38  1  0  0  0  0
 39 37  1  0  0  0  0
 40 37  1  0  0  0  0
 41 42  1  0  0  0  0
 43 41  1  0  0  0  0
 44 41  1  0  0  0  0
 45 48  1  0  0  0  0
 46 45  1  0  0  0  0
 47 45  1  0  0  0  0
 49 51  1  0  0  0  0
 50 49  1  0  0  0  0
 52 49  1  0  0  0  0
 53 23  1  0  0  0  0
 54 53  1  0  0  0  0
 55 53  1  0  0  0  0
 56 53  1  0  0  0  0
M  END
