1,2,3
q = -1.0

 75 75  0  0  0  0  0  0  0  0999 V2000
    2.3321   -0.3170    0.0114 P   0  0  0  0  0  0  0  0  0  0  0  0
   -2.3322   -0.3173    0.0113 P   0  0  0  0  0  0  0  0  0  0  0  0
   -0.0002    1.3940   -0.4627 C   0  0  0  0  0  3  0  0  0  0  0  0
   -1.2273    2.1297   -0.5293 C   0  0  0  0  0  0  0  0  0  0  0  0
   -1.2320    3.5448   -0.5702 C   0  0  0  0  0  0  0  0  0  0  0  0
   -0.0004    4.2199   -0.5736 C   0  0  0  0  0  0  0  0  0  0  0  0
   -0.0006    5.3211   -0.6063 H   0  0  0  0  0  0  0  0  0  0  0  0
    1.2312    3.5450   -0.5698 C   0  0  0  0  0  0  0  0  0  0  0  0
    1.2268    2.1299   -0.5289 C   0  0  0  0  0  0  0  0  0  0  0  0
   -2.5215    4.3247   -0.6293 C   0  0  0  0  0  0  0  0  0  0  0  0
   -2.3305    5.4135   -0.6691 H   0  0  0  0  0  0  0  0  0  0  0  0
   -3.1624    4.1322    0.2578 H   0  0  0  0  0  0  0  0  0  0  0  0
   -3.1249    4.0567   -1.5217 H   0  0  0  0  0  0  0  0  0  0  0  0
    2.5206    4.3252   -0.6286 C   0  0  0  0  0  0  0  0  0  0  0  0
    3.1615    4.1325    0.2586 H   0  0  0  0  0  0  0  0  0  0  0  0
    2.3294    5.4139   -0.6680 H   0  0  0  0  0  0  0  0  0  0  0  0
    3.1241    4.0575   -1.5210 H   0  0  0  0  0  0  0  0  0  0  0  0
    2.5439    1.4030   -0.6067 C   0  0  0  0  0  0  0  0  0  0  0  0
    3.3617    1.9138   -0.0596 H   0  0  0  0  0  0  0  0  0  0  0  0
    2.8810    1.3418   -1.6642 H   0  0  0  0  0  0  0  0  0  0  0  0
    3.4363   -1.3867   -1.1098 C   0  0  0  0  0  0  0  0  0  0  0  0
    2.8600   -0.2959    1.8398 C   0  0  0  0  0  0  0  0  0  0  0  0
    4.8238   -0.7471   -1.3092 C   0  0  0  0  0  0  0  0  0  0  0  0
    5.4039   -0.6754   -0.3723 H   0  0  0  0  0  0  0  0  0  0  0  0
    4.7654    0.2615   -1.7626 H   0  0  0  0  0  0  0  0  0  0  0  0
    5.4044   -1.3821   -2.0102 H   0  0  0  0  0  0  0  0  0  0  0  0
    3.5871   -2.8020   -0.5282 C   0  0  0  0  0  0  0  0  0  0  0  0
    4.1061   -3.4422   -1.2711 H   0  0  0  0  0  0  0  0  0  0  0  0
    2.6131   -3.2793   -0.3074 H   0  0  0  0  0  0  0  0  0  0  0  0
    4.1980   -2.8121    0.3948 H   0  0  0  0  0  0  0  0  0  0  0  0
    2.7140   -1.4529   -2.4714 C   0  0  0  0  0  0  0  0  0  0  0  0
    2.5280   -0.4489   -2.9029 H   0  0  0  0  0  0  0  0  0  0  0  0
    1.7438   -1.9795   -2.4099 H   0  0  0  0  0  0  0  0  0  0  0  0
    3.3542   -2.0064   -3.1891 H   0  0  0  0  0  0  0  0  0  0  0  0
    2.1424    0.9063    2.4846 C   0  0  0  0  0  0  0  0  0  0  0  0
    2.3483    0.8978    3.5748 H   0  0  0  0  0  0  0  0  0  0  0  0
    1.0446    0.8553    2.3444 H   0  0  0  0  0  0  0  0  0  0  0  0
    2.4900    1.8797    2.0876 H   0  0  0  0  0  0  0  0  0  0  0  0
    2.3615   -1.5896    2.5116 C   0  0  0  0  0  0  0  0  0  0  0  0
    2.6165   -1.5581    3.5911 H   0  0  0  0  0  0  0  0  0  0  0  0
    2.8237   -2.4998    2.0869 H   0  0  0  0  0  0  0  0  0  0  0  0
    1.2605   -1.6878    2.4248 H   0  0  0  0  0  0  0  0  0  0  0  0
    4.3785   -0.1437    2.0176 C   0  0  0  0  0  0  0  0  0  0  0  0
    4.7803    0.7461    1.4928 H   0  0  0  0  0  0  0  0  0  0  0  0
    4.9359   -1.0364    1.6763 H   0  0  0  0  0  0  0  0  0  0  0  0
    4.5997   -0.0134    3.0975 H   0  0  0  0  0  0  0  0  0  0  0  0
   -2.5442    1.4024   -0.6075 C   0  0  0  0  0  0  0  0  0  0  0  0
   -2.8805    1.3405   -1.6652 H   0  0  0  0  0  0  0  0  0  0  0  0
   -3.3625    1.9132   -0.0612 H   0  0  0  0  0  0  0  0  0  0  0  0
   -2.8600   -0.2956    1.8398 C   0  0  0  0  0  0  0  0  0  0  0  0
   -3.4359   -1.3877   -1.1096 C   0  0  0  0  0  0  0  0  0  0  0  0
   -4.3786   -0.1438    2.0175 C   0  0  0  0  0  0  0  0  0  0  0  0
   -4.5998   -0.0133    3.0974 H   0  0  0  0  0  0  0  0  0  0  0  0
   -4.9357   -1.0368    1.6766 H   0  0  0  0  0  0  0  0  0  0  0  0
   -4.7806    0.7457    1.4925 H   0  0  0  0  0  0  0  0  0  0  0  0
   -2.3611   -1.5889    2.5121 C   0  0  0  0  0  0  0  0  0  0  0  0
   -2.6160   -1.5569    3.5916 H   0  0  0  0  0  0  0  0  0  0  0  0
   -1.2601   -1.6868    2.4252 H   0  0  0  0  0  0  0  0  0  0  0  0
   -2.8231   -2.4994    2.0878 H   0  0  0  0  0  0  0  0  0  0  0  0
   -2.1429    0.9071    2.4840 C   0  0  0  0  0  0  0  0  0  0  0  0
   -2.4908    1.8802    2.0865 H   0  0  0  0  0  0  0  0  0  0  0  0
   -1.0451    0.8564    2.3440 H   0  0  0  0  0  0  0  0  0  0  0  0
   -2.3489    0.8990    3.5742 H   0  0  0  0  0  0  0  0  0  0  0  0
   -2.7137   -1.4542   -2.4712 C   0  0  0  0  0  0  0  0  0  0  0  0
   -1.7434   -1.9807   -2.4095 H   0  0  0  0  0  0  0  0  0  0  0  0
   -2.5278   -0.4503   -2.9030 H   0  0  0  0  0  0  0  0  0  0  0  0
   -3.3538   -2.0079   -3.1887 H   0  0  0  0  0  0  0  0  0  0  0  0
   -3.5862   -2.8028   -0.5275 C   0  0  0  0  0  0  0  0  0  0  0  0
   -4.1973   -2.8129    0.3954 H   0  0  0  0  0  0  0  0  0  0  0  0
   -2.6120   -3.2796   -0.3064 H   0  0  0  0  0  0  0  0  0  0  0  0
   -4.1048   -3.4436   -1.2703 H   0  0  0  0  0  0  0  0  0  0  0  0
   -4.8236   -0.7485   -1.3092 C   0  0  0  0  0  0  0  0  0  0  0  0
   -5.4042   -1.3841   -2.0098 H   0  0  0  0  0  0  0  0  0  0  0  0
   -4.7654    0.2597   -1.7634 H   0  0  0  0  0  0  0  0  0  0  0  0
   -5.4036   -0.6763   -0.3724 H   0  0  0  0  0  0  0  0  0  0  0  0
  1 22  1  0  0  0  0
  2 50  1  0  0  0  0
  4  3  2  0  0  0  0
  5  4  1  0  0  0  0
  6  5  2  0  0  0  0
  6  8  1  0  0  0  0
  7  6  1  0  0  0  0
  8  9  2  0  0  0  0
  9  3  1  0  0  0  0
 10  5  1  0  0  0  0
 10 12  1  0  0  0  0
 11 10  1  0  0  0  0
 13 10  1  0  0  0  0
 14  8  1  0  0  0  0
 14 15  1  0  0  0  0
 16 14  1  0  0  0  0
 17 14  1  0  0  0  0
 18  9  1  0  0  0  0
 18 19  1  0  0  0  0
 18  1  1  0  0  0  0
 20 18  1  0  0  0  0
 21 27  1  0  0  0  0
 21  1  1  0  0  0  0
 22 43  1  0  0  0  0
 22 35  1  0  0  0  0
 22 39  1  0  0  0  0
 23 21  1  0  0  0  0
 23 24  1  0  0  0  0
 25 23  1  0  0  0  0
 26 23  1  0  0  0  0
 27 29  1  0  0  0  0
 27 30  1  0  0  0  0
 28 27  1  0  0  0  0
 31 33  1  0  0  0  0
 31 21  1  0  0  0  0
 32 31  1  0  0  0  0
 34 31  1  0  0  0  0
 35 36  1  0  0  0  0
 37 35  1  0  0  0  0
 38 35  1  0  0  0  0
 39 40  1  0  0  0  0
 41 39  1  0  0  0  0
 42 39  1  0  0  0  0
 43 46  1  0  0  0  0
 44 43  1  0  0  0  0
 45 43  1  0  0  0  0
 47  4  1  0  0  0  0
 47 49  1  0  0  0  0
 47  2  1  0  0  0  0
 48 47  1  0  0  0  0
 50 52  1  0  0  0  0
 50 60  1  0  0  0  0
 50 56  1  0  0  0  0
 51 68  1  0  0  0  0
 51  2  1  0  0  0  0
 52 53  1  0  0  0  0
 54 52  1  0  0  0  0
 55 52  1  0  0  0  0
 56 57  1  0  0  0  0
 58 56  1  0  0  0  0
 59 56  1  0  0  0  0
 60 63  1  0  0  0  0
 61 60  1  0  0  0  0
 62 60  1  0  0  0  0
 64 65  1  0  0  0  0
 64 51  1  0  0  0  0
 66 64  1  0  0  0  0
 67 64  1  0  0  0  0
 68 70  1  0  0  0  0
 68 69  1  0  0  0  0
 71 68  1  0  0  0  0
 72 51  1  0  0  0  0
 72 75  1  0  0  0  0
 73 72  1  0  0  0  0
 74 72  1  0  0  0  0
M  END
