1,26,51
q = -1.0

 65 67  0  0  0  0  0  0  0  0999 V2000
   -2.1270    0.0073    0.8200 P   0  0  2  0  0  0  0  0  0  0  0  0
   -2.8292    1.1031    2.1939 C   0  0  0  0  0  0  0  0  0  0  0  0
   -3.2346    2.4509    1.5744 C   0  0  0  0  0  0  0  0  0  0  0  0
   -3.5574    3.1372    2.3859 H   0  0  0  0  0  0  0  0  0  0  0  0
   -4.0806    2.3397    0.8676 H   0  0  0  0  0  0  0  0  0  0  0  0
   -2.3802    2.9161    1.0416 H   0  0  0  0  0  0  0  0  0  0  0  0
   -1.6859    1.3143    3.2018 C   0  0  0  0  0  0  0  0  0  0  0  0
   -2.0417    1.9546    4.0365 H   0  0  0  0  0  0  0  0  0  0  0  0
   -0.8276    1.8160    2.7121 H   0  0  0  0  0  0  0  0  0  0  0  0
   -1.3301    0.3600    3.6423 H   0  0  0  0  0  0  0  0  0  0  0  0
   -4.0419    0.4242    2.8471 C   0  0  0  0  0  0  0  0  0  0  0  0
   -4.4691    1.0999    3.6186 H   0  0  0  0  0  0  0  0  0  0  0  0
   -3.7749   -0.5260    3.3520 H   0  0  0  0  0  0  0  0  0  0  0  0
   -4.8424    0.2174    2.1076 H   0  0  0  0  0  0  0  0  0  0  0  0
   -3.3764    0.0101   -0.5206 C   0  0  0  0  0  0  0  0  0  0  0  0
   -4.4649   -0.8830   -0.5739 C   0  0  0  0  0  0  0  0  0  0  0  0
   -4.5929   -1.6529    0.2019 H   0  0  0  0  0  0  0  0  0  0  0  0
   -5.3915   -0.8044   -1.6253 C   0  0  0  0  0  0  0  0  0  0  0  0
   -6.2353   -1.5102   -1.6629 H   0  0  0  0  0  0  0  0  0  0  0  0
   -5.2413    0.1683   -2.6260 C   0  0  0  0  0  0  0  0  0  0  0  0
   -5.9688    0.2269   -3.4499 H   0  0  0  0  0  0  0  0  0  0  0  0
   -4.1575    1.0607   -2.5782 C   0  0  0  0  0  0  0  0  0  0  0  0
   -4.0321    1.8207   -3.3644 H   0  0  0  0  0  0  0  0  0  0  0  0
   -3.2235    0.9810   -1.5359 C   0  0  0  0  0  0  0  0  0  0  0  0
   -2.3613    1.6675   -1.4967 H   0  0  0  0  0  0  0  0  0  0  0  0
    2.1269    0.0051   -0.8197 P   0  0  2  0  0  0  0  0  0  0  0  0
    2.8283    1.0977   -2.1965 C   0  0  0  0  0  0  0  0  0  0  0  0
    4.0406    0.4173   -2.8489 C   0  0  0  0  0  0  0  0  0  0  0  0
    4.4673    1.0912   -3.6222 H   0  0  0  0  0  0  0  0  0  0  0  0
    3.7732   -0.5340   -3.3515 H   0  0  0  0  0  0  0  0  0  0  0  0
    4.8415    0.2122   -2.1094 H   0  0  0  0  0  0  0  0  0  0  0  0
    3.2341    2.4470   -1.5803 C   0  0  0  0  0  0  0  0  0  0  0  0
    3.5563    3.1314   -2.3936 H   0  0  0  0  0  0  0  0  0  0  0  0
    4.0806    2.3373   -0.8739 H   0  0  0  0  0  0  0  0  0  0  0  0
    2.3801    2.9134   -1.0479 H   0  0  0  0  0  0  0  0  0  0  0  0
    1.6844    1.3067   -3.2042 C   0  0  0  0  0  0  0  0  0  0  0  0
    2.0397    1.9449   -4.0407 H   0  0  0  0  0  0  0  0  0  0  0  0
    0.8264    1.8097   -2.7151 H   0  0  0  0  0  0  0  0  0  0  0  0
    1.3281    0.3514   -3.6422 H   0  0  0  0  0  0  0  0  0  0  0  0
    3.3770    0.0111    0.5202 C   0  0  0  0  0  0  0  0  0  0  0  0
    3.2246    0.9843    1.5333 C   0  0  0  0  0  0  0  0  0  0  0  0
    2.3624    1.6705    1.4931 H   0  0  0  0  0  0  0  0  0  0  0  0
    4.1593    1.0665    2.5749 C   0  0  0  0  0  0  0  0  0  0  0  0
    4.0343    1.8282    3.3594 H   0  0  0  0  0  0  0  0  0  0  0  0
    5.2433    0.1744    2.6240 C   0  0  0  0  0  0  0  0  0  0  0  0
    5.9713    0.2349    3.4473 H   0  0  0  0  0  0  0  0  0  0  0  0
    5.3930   -0.8006    1.6254 C   0  0  0  0  0  0  0  0  0  0  0  0
    6.2369   -1.5062    1.6641 H   0  0  0  0  0  0  0  0  0  0  0  0
    4.4657   -0.8818    0.5748 C   0  0  0  0  0  0  0  0  0  0  0  0
    4.5933   -1.6534   -0.1993 H   0  0  0  0  0  0  0  0  0  0  0  0
   -0.0002   -1.7397    0.0022 C   0  0  0  0  0  3  0  0  0  0  0  0
   -1.0029   -2.4712    0.7024 C   0  0  0  0  0  0  0  0  0  0  0  0
   -1.0017   -3.8791    0.6871 C   0  0  0  0  0  0  0  0  0  0  0  0
   -1.7890   -4.4292    1.2275 H   0  0  0  0  0  0  0  0  0  0  0  0
   -0.0007   -4.5844    0.0052 C   0  0  0  0  0  0  0  0  0  0  0  0
   -0.0008   -5.6850    0.0063 H   0  0  0  0  0  0  0  0  0  0  0  0
    1.0006   -3.8809   -0.6782 C   0  0  0  0  0  0  0  0  0  0  0  0
    1.7877   -4.4323   -1.2174 H   0  0  0  0  0  0  0  0  0  0  0  0
    1.0022   -2.4729   -0.6965 C   0  0  0  0  0  0  0  0  0  0  0  0
   -2.0452   -1.7171    1.4966 C   0  0  0  0  0  0  0  0  0  0  0  0
   -1.7166   -1.6052    2.5536 H   0  0  0  0  0  0  0  0  0  0  0  0
   -3.0276   -2.2304    1.5243 H   0  0  0  0  0  0  0  0  0  0  0  0
    2.0447   -1.7209   -1.4923 C   0  0  0  0  0  0  0  0  0  0  0  0
    1.7162   -1.6114   -2.5495 H   0  0  0  0  0  0  0  0  0  0  0  0
    3.0270   -2.2344   -1.5187 H   0  0  0  0  0  0  0  0  0  0  0  0
  1 60  1  1  0  0  0
  1  2  1  0  0  0  0
  2 11  1  0  0  0  0
  2  7  1  0  0  0  0
  3  2  1  0  0  0  0
  3  4  1  0  0  0  0
  5  3  1  0  0  0  0
  6  3  1  0  0  0  0
  7 10  1  0  0  0  0
  7  8  1  0  0  0  0
  9  7  1  0  0  0  0
 11 13  1  0  0  0  0
 11 12  1  0  0  0  0
 14 11  1  0  0  0  0
 15  1  1  0  0  0  0
 16 15  1  0  0  0  0
 16 17  1  0  0  0  0
 18 16  2  0  0  0  0
 19 18  1  0  0  0  0
 20 22  2  0  0  0  0
 20 18  1  0  0  0  0
 21 20  1  0  0  0  0
 22 24  1  0  0  0  0
 23 22  1  0  0  0  0
 24 25  1  0  0  0  0
 24 15  2  0  0  0  0
 26 27  1  6  0  0  0
 26 40  1  0  0  0  0
 27 32  1  0  0  0  0
 28 27  1  0  0  0  0
 28 31  1  0  0  0  0
 29 28  1  0  0  0  0
 30 28  1  0  0  0  0
 32 35  1  0  0  0  0
 32 34  1  0  0  0  0
 33 32  1  0  0  0  0
 36 38  1  0  0  0  0
 36 27  1  0  0  0  0
 37 36  1  0  0  0  0
 39 36  1  0  0  0  0
 40 49  2  0  0  0  0
 40 41  1  0  0  0  0
 41 43  2  0  0  0  0
 42 41  1  0  0  0  0
 43 45  1  0  0  0  0
 43 44  1  0  0  0  0
 45 46  1  0  0  0  0
 47 48  1  0  0  0  0
 47 45  2  0  0  0  0
 49 47  1  0  0  0  0
 50 49  1  0  0  0  0
 51 52  1  0  0  0  0
 52 60  1  0  0  0  0
 53 52  2  0  0  0  0
 53 54  1  0  0  0  0
 55 56  1  0  0  0  0
 55 53  1  0  0  0  0
 57 55  2  0  0  0  0
 58 57  1  0  0  0  0
 59 57  1  0  0  0  0
 59 51  2  0  0  0  0
 60 62  1  0  0  0  0
 60 61  1  0  0  0  0
 63 26  1  0  0  0  0
 63 59  1  0  0  0  0
 64 63  1  0  0  0  0
 65 63  1  0  0  0  0
M  END
