1,2,3
q = -1.0

 75 76  0  0  0  0  0  0  0  0999 V2000
    1.6086   -1.5657    0.0550 P   0  0  0  0  0  0  0  0  0  0  0  0
   -2.3158    0.8392   -0.0858 P   0  0  0  0  0  0  0  0  0  0  0  0
    0.5994    1.1469   -0.1343 C   0  0  0  0  0  3  0  0  0  0  0  0
   -0.0621    2.3911   -0.4594 C   0  0  0  0  0  0  0  0  0  0  0  0
    0.6464    3.5831   -0.4987 C   0  0  0  0  0  0  0  0  0  0  0  0
    0.1289    4.5258   -0.7424 H   0  0  0  0  0  0  0  0  0  0  0  0
    2.0444    3.6276   -0.2378 C   0  0  0  0  0  0  0  0  0  0  0  0
    2.7741    4.8503   -0.2743 C   0  0  0  0  0  0  0  0  0  0  0  0
    2.2309    5.7780   -0.5153 H   0  0  0  0  0  0  0  0  0  0  0  0
    4.1364    4.8815   -0.0125 C   0  0  0  0  0  0  0  0  0  0  0  0
    4.6866    5.8340   -0.0443 H   0  0  0  0  0  0  0  0  0  0  0  0
    4.8192    3.6779    0.3015 C   0  0  0  0  0  0  0  0  0  0  0  0
    5.8988    3.7019    0.5158 H   0  0  0  0  0  0  0  0  0  0  0  0
    4.1350    2.4702    0.3439 C   0  0  0  0  0  0  0  0  0  0  0  0
    4.6850    1.5531    0.5991 H   0  0  0  0  0  0  0  0  0  0  0  0
    2.7338    2.3976    0.0717 C   0  0  0  0  0  0  0  0  0  0  0  0
    1.9889    1.1701    0.1100 C   0  0  0  0  0  0  0  0  0  0  0  0
    2.7006   -0.1179    0.4607 C   0  0  0  0  0  0  0  0  0  0  0  0
    2.9074   -0.1608    1.5522 H   0  0  0  0  0  0  0  0  0  0  0  0
    3.6864   -0.2190   -0.0395 H   0  0  0  0  0  0  0  0  0  0  0  0
   -1.5363    2.3703   -0.7958 C   0  0  0  0  0  0  0  0  0  0  0  0
   -1.6616    2.2773   -1.8966 H   0  0  0  0  0  0  0  0  0  0  0  0
   -2.0608    3.3010   -0.4963 H   0  0  0  0  0  0  0  0  0  0  0  0
    1.9415   -2.8290    1.4355 C   0  0  0  0  0  0  0  0  0  0  0  0
    2.1583   -2.1567   -1.6664 C   0  0  0  0  0  0  0  0  0  0  0  0
    1.3836   -4.2074    1.0420 C   0  0  0  0  0  0  0  0  0  0  0  0
    1.4221   -4.8745    1.9294 H   0  0  0  0  0  0  0  0  0  0  0  0
    1.9845   -4.6875    0.2449 H   0  0  0  0  0  0  0  0  0  0  0  0
    0.3278   -4.1325    0.7112 H   0  0  0  0  0  0  0  0  0  0  0  0
    1.1498   -2.2981    2.6489 C   0  0  0  0  0  0  0  0  0  0  0  0
    1.3396   -2.9572    3.5226 H   0  0  0  0  0  0  0  0  0  0  0  0
    0.0632   -2.2937    2.4345 H   0  0  0  0  0  0  0  0  0  0  0  0
    1.4515   -1.2687    2.9323 H   0  0  0  0  0  0  0  0  0  0  0  0
    3.4344   -2.9362    1.7921 C   0  0  0  0  0  0  0  0  0  0  0  0
    3.8582   -1.9736    2.1404 H   0  0  0  0  0  0  0  0  0  0  0  0
    4.0500   -3.2994    0.9482 H   0  0  0  0  0  0  0  0  0  0  0  0
    3.5502   -3.6628    2.6244 H   0  0  0  0  0  0  0  0  0  0  0  0
    2.1183   -0.9075   -2.5703 C   0  0  0  0  0  0  0  0  0  0  0  0
    2.8495   -0.1323   -2.2673 H   0  0  0  0  0  0  0  0  0  0  0  0
    1.1118   -0.4440   -2.5664 H   0  0  0  0  0  0  0  0  0  0  0  0
    2.3610   -1.2137   -3.6098 H   0  0  0  0  0  0  0  0  0  0  0  0
    1.1288   -3.1736   -2.1939 C   0  0  0  0  0  0  0  0  0  0  0  0
    1.3399   -3.3781   -3.2650 H   0  0  0  0  0  0  0  0  0  0  0  0
    0.0949   -2.7860   -2.1022 H   0  0  0  0  0  0  0  0  0  0  0  0
    1.1695   -4.1363   -1.6528 H   0  0  0  0  0  0  0  0  0  0  0  0
    3.5709   -2.7587   -1.6730 C   0  0  0  0  0  0  0  0  0  0  0  0
    3.6214   -3.7111   -1.1108 H   0  0  0  0  0  0  0  0  0  0  0  0
    4.3284   -2.0644   -1.2555 H   0  0  0  0  0  0  0  0  0  0  0  0
    3.8689   -2.9781   -2.7204 H   0  0  0  0  0  0  0  0  0  0  0  0
   -2.9454    1.3164    1.6426 C   0  0  0  0  0  0  0  0  0  0  0  0
   -3.7049    0.3945   -1.3049 C   0  0  0  0  0  0  0  0  0  0  0  0
   -3.3288    0.0314    2.4001 C   0  0  0  0  0  0  0  0  0  0  0  0
   -3.5318    0.2858    3.4620 H   0  0  0  0  0  0  0  0  0  0  0  0
   -2.5115   -0.7155    2.3626 H   0  0  0  0  0  0  0  0  0  0  0  0
   -4.2348   -0.4496    1.9889 H   0  0  0  0  0  0  0  0  0  0  0  0
   -1.7475    1.9684    2.3627 C   0  0  0  0  0  0  0  0  0  0  0  0
   -1.4314    2.9211    1.8948 H   0  0  0  0  0  0  0  0  0  0  0  0
   -0.8708    1.2906    2.3783 H   0  0  0  0  0  0  0  0  0  0  0  0
   -2.0401    2.1866    3.4115 H   0  0  0  0  0  0  0  0  0  0  0  0
   -4.1237    2.3003    1.6024 C   0  0  0  0  0  0  0  0  0  0  0  0
   -3.8882    3.2172    1.0246 H   0  0  0  0  0  0  0  0  0  0  0  0
   -4.3678    2.6187    2.6384 H   0  0  0  0  0  0  0  0  0  0  0  0
   -5.0373    1.8428    1.1760 H   0  0  0  0  0  0  0  0  0  0  0  0
   -4.6648   -0.6260   -0.6696 C   0  0  0  0  0  0  0  0  0  0  0  0
   -5.3581   -0.9992   -1.4532 H   0  0  0  0  0  0  0  0  0  0  0  0
   -5.2853   -0.1744    0.1291 H   0  0  0  0  0  0  0  0  0  0  0  0
   -4.1095   -1.4930   -0.2580 H   0  0  0  0  0  0  0  0  0  0  0  0
   -4.4785    1.6333   -1.7898 C   0  0  0  0  0  0  0  0  0  0  0  0
   -5.2514    1.3080   -2.5186 H   0  0  0  0  0  0  0  0  0  0  0  0
   -3.8272    2.3621   -2.3114 H   0  0  0  0  0  0  0  0  0  0  0  0
   -4.9995    2.1604   -0.9690 H   0  0  0  0  0  0  0  0  0  0  0  0
   -2.9884   -0.2743   -2.4966 C   0  0  0  0  0  0  0  0  0  0  0  0
   -2.4947   -1.2130   -2.1785 H   0  0  0  0  0  0  0  0  0  0  0  0
   -2.2208    0.3843   -2.9529 H   0  0  0  0  0  0  0  0  0  0  0  0
   -3.7371   -0.5112   -3.2823 H   0  0  0  0  0  0  0  0  0  0  0  0
  1 18  1  0  0  0  0
  1 24  1  0  0  0  0
  2 50  1  0  0  0  0
  3 17  1  0  0  0  0
  4  3  2  0  0  0  0
  5  4  1  0  0  0  0
  5  7  2  0  0  0  0
  6  5  1  0  0  0  0
  7 16  1  0  0  0  0
  8  7  1  0  0  0  0
  8 10  2  0  0  0  0
  9  8  1  0  0  0  0
 10 12  1  0  0  0  0
 11 10  1  0  0  0  0
 12 14  2  0  0  0  0
 12 13  1  0  0  0  0
 14 15  1  0  0  0  0
 16 17  2  0  0  0  0
 16 14  1  0  0  0  0
 17 18  1  0  0  0  0
 18 19  1  0  0  0  0
 20 18  1  0  0  0  0
 21 23  1  0  0  0  0
 21  4  1  0  0  0  0
 21  2  1  0  0  0  0
 22 21  1  0  0  0  0
 24 34  1  0  0  0  0
 24 30  1  0  0  0  0
 25  1  1  0  0  0  0
 26 24  1  0  0  0  0
 26 27  1  0  0  0  0
 28 26  1  0  0  0  0
 29 26  1  0  0  0  0
 30 33  1  0  0  0  0
 30 31  1  0  0  0  0
 32 30  1  0  0  0  0
 34 35  1  0  0  0  0
 34 37  1  0  0  0  0
 36 34  1  0  0  0  0
 38 40  1  0  0  0  0
 38 39  1  0  0  0  0
 38 25  1  0  0  0  0
 41 38  1  0  0  0  0
 42 44  1  0  0  0  0
 42 25  1  0  0  0  0
 42 45  1  0  0  0  0
 43 42  1  0  0  0  0
 46 25  1  0  0  0  0
 46 48  1  0  0  0  0
 46 47  1  0  0  0  0
 49 46  1  0  0  0  0
 50 56  1  0  0  0  0
 50 52  1  0  0  0  0
 51 64  1  0  0  0  0
 51  2  1  0  0  0  0
 52 53  1  0  0  0  0
 54 52  1  0  0  0  0
 55 52  1  0  0  0  0
 56 58  1  0  0  0  0
 56 59  1  0  0  0  0
 57 56  1  0  0  0  0
 60 50  1  0  0  0  0
 60 62  1  0  0  0  0
 61 60  1  0  0  0  0
 63 60  1  0  0  0  0
 64 67  1  0  0  0  0
 64 66  1  0  0  0  0
 65 64  1  0  0  0  0
 68 51  1  0  0  0  0
 68 71  1  0  0  0  0
 69 68  1  0  0  0  0
 70 68  1  0  0  0  0
 72 73  1  0  0  0  0
 72 51  1  0  0  0  0
 74 72  1  0  0  0  0
 75 72  1  0  0  0  0
M  END
