1,2,8
q = 0.0, confidence = 0.682

 74 74  0  0  1  0  0  0  0  0999 V2000
   -2.3194   -0.1241    0.0413 P   0  0  0  0  0  0  0  0  0  0  0  0
    2.3194   -0.1240    0.0413 P   0  0  0  0  0  0  0  0  0  0  0  0
   -2.5657    1.6898   -0.2733 C   0  0  0  0  0  0  0  0  0  0  0  0
   -2.7759    1.7813   -1.3588 H   0  0  0  0  0  0  0  0  0  0  0  0
   -3.4463    2.1110    0.2538 H   0  0  0  0  0  0  0  0  0  0  0  0
   -1.2753    2.4592    0.0361 C   0  0  1  0  0  0  0  0  0  0  0  0
   -1.2879    2.7474    1.1172 H   0  0  0  0  0  0  0  0  0  0  0  0
    0.0000    1.5994   -0.0703 C   0  0  0  0  0  2  0  0  0  0  0  0
    1.2753    2.4592    0.0361 C   0  0  1  0  0  0  0  0  0  0  0  0
    1.2879    2.7474    1.1172 H   0  0  0  0  0  0  0  0  0  0  0  0
    2.5657    1.6898   -0.2734 C   0  0  0  0  0  0  0  0  0  0  0  0
    3.4463    2.1110    0.2537 H   0  0  0  0  0  0  0  0  0  0  0  0
    2.7759    1.7813   -1.3588 H   0  0  0  0  0  0  0  0  0  0  0  0
   -1.2447    3.7762   -0.7698 C   0  0  0  0  0  0  0  0  0  0  0  0
   -1.2740    3.5229   -1.8539 H   0  0  0  0  0  0  0  0  0  0  0  0
   -2.1701    4.3536   -0.5601 H   0  0  0  0  0  0  0  0  0  0  0  0
   -0.0000    4.6079   -0.4804 C   0  0  0  0  0  0  0  0  0  0  0  0
   -0.0000    5.5377   -1.0869 H   0  0  0  0  0  0  0  0  0  0  0  0
    0.0000    4.9261    0.5863 H   0  0  0  0  0  0  0  0  0  0  0  0
    1.2447    3.7762   -0.7698 C   0  0  0  0  0  0  0  0  0  0  0  0
    2.1701    4.3536   -0.5602 H   0  0  0  0  0  0  0  0  0  0  0  0
    1.2739    3.5229   -1.8539 H   0  0  0  0  0  0  0  0  0  0  0  0
   -3.1008   -0.4635    1.7570 C   0  0  0  0  0  0  0  0  0  0  0  0
   -2.5918   -1.8357    2.2365 C   0  0  0  0  0  0  0  0  0  0  0  0
   -2.9505   -2.0248    3.2711 H   0  0  0  0  0  0  0  0  0  0  0  0
   -1.4844   -1.8693    2.2354 H   0  0  0  0  0  0  0  0  0  0  0  0
   -2.9451   -2.6648    1.5958 H   0  0  0  0  0  0  0  0  0  0  0  0
   -2.5728    0.6216    2.7152 C   0  0  0  0  0  0  0  0  0  0  0  0
   -2.8949    0.3795    3.7503 H   0  0  0  0  0  0  0  0  0  0  0  0
   -2.9713    1.6270    2.4722 H   0  0  0  0  0  0  0  0  0  0  0  0
   -1.4659    0.6707    2.7045 H   0  0  0  0  0  0  0  0  0  0  0  0
   -4.6355   -0.4203    1.7719 C   0  0  0  0  0  0  0  0  0  0  0  0
   -4.9953   -0.5303    2.8178 H   0  0  0  0  0  0  0  0  0  0  0  0
   -5.0860   -1.2415    1.1831 H   0  0  0  0  0  0  0  0  0  0  0  0
   -5.0304    0.5426    1.3885 H   0  0  0  0  0  0  0  0  0  0  0  0
   -3.3575   -0.9348   -1.3542 C   0  0  0  0  0  0  0  0  0  0  0  0
   -3.5519   -2.4334   -1.0661 C   0  0  0  0  0  0  0  0  0  0  0  0
   -4.0052   -2.9182   -1.9577 H   0  0  0  0  0  0  0  0  0  0  0  0
   -4.2374   -2.6112   -0.2145 H   0  0  0  0  0  0  0  0  0  0  0  0
   -2.5807   -2.9277   -0.8631 H   0  0  0  0  0  0  0  0  0  0  0  0
   -4.7167   -0.2560   -1.5969 C   0  0  0  0  0  0  0  0  0  0  0  0
   -5.2099   -0.7443   -2.4652 H   0  0  0  0  0  0  0  0  0  0  0  0
   -4.6164    0.8190   -1.8463 H   0  0  0  0  0  0  0  0  0  0  0  0
   -5.4034   -0.3465   -0.7361 H   0  0  0  0  0  0  0  0  0  0  0  0
   -2.4871   -0.7868   -2.6198 C   0  0  0  0  0  0  0  0  0  0  0  0
   -3.0349   -1.2046   -3.4915 H   0  0  0  0  0  0  0  0  0  0  0  0
   -1.5341   -1.3395   -2.5083 H   0  0  0  0  0  0  0  0  0  0  0  0
   -2.2543    0.2732   -2.8520 H   0  0  0  0  0  0  0  0  0  0  0  0
    3.1008   -0.4634    1.7570 C   0  0  0  0  0  0  0  0  0  0  0  0
    2.5728    0.6217    2.7152 C   0  0  0  0  0  0  0  0  0  0  0  0
    2.8950    0.3796    3.7502 H   0  0  0  0  0  0  0  0  0  0  0  0
    1.4659    0.6708    2.7045 H   0  0  0  0  0  0  0  0  0  0  0  0
    2.9713    1.6271    2.4721 H   0  0  0  0  0  0  0  0  0  0  0  0
    4.6356   -0.4202    1.7719 C   0  0  0  0  0  0  0  0  0  0  0  0
    4.9954   -0.5302    2.8178 H   0  0  0  0  0  0  0  0  0  0  0  0
    5.0304    0.5426    1.3884 H   0  0  0  0  0  0  0  0  0  0  0  0
    5.0860   -1.2415    1.1830 H   0  0  0  0  0  0  0  0  0  0  0  0
    2.5918   -1.8357    2.2366 C   0  0  0  0  0  0  0  0  0  0  0  0
    2.9506   -2.0247    3.2711 H   0  0  0  0  0  0  0  0  0  0  0  0
    2.9451   -2.6648    1.5958 H   0  0  0  0  0  0  0  0  0  0  0  0
    1.4844   -1.8692    2.2355 H   0  0  0  0  0  0  0  0  0  0  0  0
    3.3575   -0.9349   -1.3542 C   0  0  0  0  0  0  0  0  0  0  0  0
    2.4870   -0.7869   -2.6198 C   0  0  0  0  0  0  0  0  0  0  0  0
    3.0348   -1.2047   -3.4915 H   0  0  0  0  0  0  0  0  0  0  0  0
    2.2542    0.2732   -2.8520 H   0  0  0  0  0  0  0  0  0  0  0  0
    1.5340   -1.3396   -2.5083 H   0  0  0  0  0  0  0  0  0  0  0  0
    3.5518   -2.4335   -1.0661 C   0  0  0  0  0  0  0  0  0  0  0  0
    4.0051   -2.9183   -1.9576 H   0  0  0  0  0  0  0  0  0  0  0  0
    2.5807   -2.9277   -0.8630 H   0  0  0  0  0  0  0  0  0  0  0  0
    4.2373   -2.6112   -0.2145 H   0  0  0  0  0  0  0  0  0  0  0  0
    4.7166   -0.2561   -1.5970 C   0  0  0  0  0  0  0  0  0  0  0  0
    5.2098   -0.7445   -2.4652 H   0  0  0  0  0  0  0  0  0  0  0  0
    5.4034   -0.3466   -0.7362 H   0  0  0  0  0  0  0  0  0  0  0  0
    4.6164    0.8189   -1.8465 H   0  0  0  0  0  0  0  0  0  0  0  0
  1 23  1  0  0  0  0
  2 49  1  0  0  0  0
  3  6  1  0  0  0  0
  3  1  1  0  0  0  0
  3  5  1  0  0  0  0
  4  3  1  0  0  0  0
  6  7  1  1  0  0  0
  8  9  1  0  0  0  0
  8  6  1  0  0  0  0
  9 10  1  1  0  0  0
 11  9  1  0  0  0  0
 11  2  1  0  0  0  0
 11 12  1  0  0  0  0
 13 11  1  0  0  0  0
 14 16  1  0  0  0  0
 14 17  1  0  0  0  0
 14  6  1  0  0  0  0
 15 14  1  0  0  0  0
 17 19  1  0  0  0  0
 18 17  1  0  0  0  0
 20 21  1  0  0  0  0
 20 17  1  0  0  0  0
 20  9  1  0  0  0  0
 22 20  1  0  0  0  0
 23 32  1  0  0  0  0
 23 24  1  0  0  0  0
 23 28  1  0  0  0  0
 24 25  1  0  0  0  0
 26 24  1  0  0  0  0
 27 24  1  0  0  0  0
 28 29  1  0  0  0  0
 30 28  1  0  0  0  0
 31 28  1  0  0  0  0
 32 33  1  0  0  0  0
 34 32  1  0  0  0  0
 35 32  1  0  0  0  0
 36 37  1  0  0  0  0
 36  1  1  0  0  0  0
 37 40  1  0  0  0  0
 37 39  1  0  0  0  0
 38 37  1  0  0  0  0
 41 36  1  0  0  0  0
 41 44  1  0  0  0  0
 42 41  1  0  0  0  0
 43 41  1  0  0  0  0
 45 47  1  0  0  0  0
 45 36  1  0  0  0  0
 46 45  1  0  0  0  0
 48 45  1  0  0  0  0
 49 54  1  0  0  0  0
 49 58  1  0  0  0  0
 49 50  1  0  0  0  0
 50 51  1  0  0  0  0
 52 50  1  0  0  0  0
 53 50  1  0  0  0  0
 54 55  1  0  0  0  0
 56 54  1  0  0  0  0
 57 54  1  0  0  0  0
 58 59  1  0  0  0  0
 60 58  1  0  0  0  0
 61 58  1  0  0  0  0
 62 67  1  0  0  0  0
 62  2  1  0  0  0  0
 63 66  1  0  0  0  0
 63 62  1  0  0  0  0
 64 63  1  0  0  0  0
 65 63  1  0  0  0  0
 67 69  1  0  0  0  0
 67 70  1  0  0  0  0
 68 67  1  0  0  0  0
 71 62  1  0  0  0  0
 71 73  1  0  0  0  0
 72 71  1  0  0  0  0
 74 71  1  0  0  0  0
M  END
