1,2,26
q = -1.0, confidence = 0.01

 64 65  0  0  0  0  0  0  0  0999 V2000
    1.5199   -0.7072    0.8102 P   0  0  1  0  0  0  0  0  0  0  0  0
   -1.8118    0.8356    0.1151 P   0  0  0  0  0  0  0  0  0  0  0  0
    0.8084    1.0222   -1.7887 C   0  0  0  0  0  0  0  0  0  0  0  0
    0.1066    0.1823   -1.5861 H   0  0  0  0  0  0  0  0  0  0  0  0
    0.6409    1.3121   -2.8469 H   0  0  0  0  0  0  0  0  0  0  0  0
    2.2282    0.5134   -1.6576 C   0  0  0  0  0  0  0  0  0  0  0  0
    4.4739    0.2973   -2.6322 C   0  0  0  0  0  0  0  0  0  0  0  0
    5.1715    0.5202   -3.4538 H   0  0  0  0  0  0  0  0  0  0  0  0
    4.8907   -0.4809   -1.5426 C   0  0  0  0  0  0  0  0  0  0  0  0
    5.9147   -0.8812   -1.4999 H   0  0  0  0  0  0  0  0  0  0  0  0
    3.9837   -0.7629   -0.5127 C   0  0  0  0  0  0  0  0  0  0  0  0
    4.2949   -1.4082    0.3218 H   0  0  0  0  0  0  0  0  0  0  0  0
    2.6651   -0.2573   -0.5445 C   0  0  0  0  0  0  0  0  0  0  0  0
    3.1568    0.7740   -2.6866 C   0  0  0  0  0  0  0  0  0  0  0  0
    2.8249    1.3572   -3.5600 H   0  0  0  0  0  0  0  0  0  0  0  0
    0.4683    2.2242   -0.9166 C   0  0  0  0  0  0  0  0  0  0  0  0
   -0.7085    2.3076   -0.1176 C   0  0  0  0  0  0  0  0  0  0  0  0
   -0.9723    3.5077    0.5812 C   0  0  0  0  0  0  0  0  0  0  0  0
   -1.8843    3.5932    1.1893 H   0  0  0  0  0  0  0  0  0  0  0  0
   -0.0898    4.5953    0.5373 C   0  0  0  0  0  0  0  0  0  0  0  0
   -0.3191    5.5116    1.1020 H   0  0  0  0  0  0  0  0  0  0  0  0
    1.0834    4.5007   -0.2244 C   0  0  0  0  0  0  0  0  0  0  0  0
    1.7929    5.3412   -0.2634 H   0  0  0  0  0  0  0  0  0  0  0  0
    1.3457    3.3279   -0.9430 C   0  0  0  0  0  0  0  0  0  0  0  0
    2.2644    3.2551   -1.5459 H   0  0  0  0  0  0  0  0  0  0  0  0
    1.0901   -2.4435    0.8099 C   0  0  0  0  0  3  0  0  0  0  0  0
    3.4402   -0.5610    2.9244 C   0  0  0  0  0  0  0  0  0  0  0  0
    3.6570   -0.1760    3.9431 H   0  0  0  0  0  0  0  0  0  0  0  0
    4.2911   -0.2693    2.2770 H   0  0  0  0  0  0  0  0  0  0  0  0
    3.4037   -1.6668    2.9791 H   0  0  0  0  0  0  0  0  0  0  0  0
   -2.7374    1.1455    1.7195 C   0  0  0  0  0  0  0  0  0  0  0  0
   -3.1980    2.1566    1.6858 H   0  0  0  0  0  0  0  0  0  0  0  0
   -3.1314    1.0147   -1.2157 C   0  0  0  0  0  0  0  0  0  0  0  0
   -3.7985    0.1510   -1.0005 H   0  0  0  0  0  0  0  0  0  0  0  0
   -1.7670    1.0700    2.9046 C   0  0  0  0  0  0  0  0  0  0  0  0
   -2.3076    1.2573    3.8557 H   0  0  0  0  0  0  0  0  0  0  0  0
   -0.9466    1.8105    2.8259 H   0  0  0  0  0  0  0  0  0  0  0  0
   -1.3090    0.0599    2.9556 H   0  0  0  0  0  0  0  0  0  0  0  0
   -3.8514    0.0947    1.8463 C   0  0  0  0  0  0  0  0  0  0  0  0
   -3.4497   -0.9310    1.7077 H   0  0  0  0  0  0  0  0  0  0  0  0
   -4.6567    0.2432    1.1004 H   0  0  0  0  0  0  0  0  0  0  0  0
   -4.3153    0.1568    2.8525 H   0  0  0  0  0  0  0  0  0  0  0  0
   -3.9240    2.3203   -1.1143 C   0  0  0  0  0  0  0  0  0  0  0  0
   -4.4381    2.4383   -0.1395 H   0  0  0  0  0  0  0  0  0  0  0  0
   -4.7032    2.3546   -1.9047 H   0  0  0  0  0  0  0  0  0  0  0  0
   -3.2635    3.1999   -1.2622 H   0  0  0  0  0  0  0  0  0  0  0  0
   -2.5302    0.8076   -2.6099 C   0  0  0  0  0  0  0  0  0  0  0  0
   -2.0036   -0.1659   -2.6798 H   0  0  0  0  0  0  0  0  0  0  0  0
   -1.8309    1.6293   -2.8701 H   0  0  0  0  0  0  0  0  0  0  0  0
   -3.3411    0.8173   -3.3681 H   0  0  0  0  0  0  0  0  0  0  0  0
    2.1793    1.5615    2.2849 C   0  0  0  0  0  0  0  0  0  0  0  0
    2.4275    2.0176    3.2656 H   0  0  0  0  0  0  0  0  0  0  0  0
    1.2173    1.9850    1.9373 H   0  0  0  0  0  0  0  0  0  0  0  0
    2.9595    1.8722    1.5603 H   0  0  0  0  0  0  0  0  0  0  0  0
    1.5102   -3.3080   -0.3606 C   0  0  0  0  0  0  0  0  0  0  0  0
    2.4811   -3.8210   -0.1623 H   0  0  0  0  0  0  0  0  0  0  0  0
    1.6045   -2.7342   -1.3014 H   0  0  0  0  0  0  0  0  0  0  0  0
    0.7466   -4.0944   -0.5359 H   0  0  0  0  0  0  0  0  0  0  0  0
    0.9235   -3.1760    2.1258 C   0  0  0  0  0  0  0  0  0  0  0  0
    0.1301   -3.9464    2.0252 H   0  0  0  0  0  0  0  0  0  0  0  0
    0.6254   -2.5113    2.9608 H   0  0  0  0  0  0  0  0  0  0  0  0
    1.8588   -3.7070    2.4234 H   0  0  0  0  0  0  0  0  0  0  0  0
    2.1247    0.0344    2.4132 C   0  0  0  0  0  0  0  0  0  0  0  0
    1.3040   -0.2380    3.1116 H   0  0  0  0  0  0  0  0  0  0  0  0
  1 26  1  1  0  0  0
  1 63  1  0  0  0  0
  2 31  1  0  0  0  0
  3  6  1  0  0  0  0
  3  4  1  0  0  0  0
  3 16  1  0  0  0  0
  5  3  1  0  0  0  0
  6 13  1  0  0  0  0
  7  9  2  0  0  0  0
  8  7  1  0  0  0  0
  9 10  1  0  0  0  0
  9 11  1  0  0  0  0
 11 12  1  0  0  0  0
 13 11  2  0  0  0  0
 13  1  1  0  0  0  0
 14  7  1  0  0  0  0
 14  6  2  0  0  0  0
 15 14  1  0  0  0  0
 16 17  1  0  0  0  0
 17  2  1  0  0  0  0
 17 18  2  0  0  0  0
 18 19  1  0  0  0  0
 20 18  1  0  0  0  0
 20 21  1  0  0  0  0
 22 20  2  0  0  0  0
 23 22  1  0  0  0  0
 24 16  2  0  0  0  0
 24 22  1  0  0  0  0
 25 24  1  0  0  0  0
 26 59  1  0  0  0  0
 27 30  1  0  0  0  0
 27 28  1  0  0  0  0
 29 27  1  0  0  0  0
 31 39  1  0  0  0  0
 31 35  1  0  0  0  0
 32 31  1  0  0  0  0
 33 43  1  0  0  0  0
 33 34  1  0  0  0  0
 33  2  1  0  0  0  0
 35 38  1  0  0  0  0
 35 36  1  0  0  0  0
 37 35  1  0  0  0  0
 39 42  1  0  0  0  0
 40 39  1  0  0  0  0
 41 39  1  0  0  0  0
 43 44  1  0  0  0  0
 45 43  1  0  0  0  0
 46 43  1  0  0  0  0
 47 33  1  0  0  0  0
 48 47  1  0  0  0  0
 49 47  1  0  0  0  0
 50 47  1  0  0  0  0
 51 63  1  0  0  0  0
 51 52  1  0  0  0  0
 53 51  1  0  0  0  0
 54 51  1  0  0  0  0
 55 56  1  0  0  0  0
 55 26  1  0  0  0  0
 57 55  1  0  0  0  0
 58 55  1  0  0  0  0
 59 62  1  0  0  0  0
 59 61  1  0  0  0  0
 60 59  1  0  0  0  0
 63 27  1  0  0  0  0
 63 64  1  0  0  0  0
M  END
