1,2,12
q = -1.0, confidence = 0.0

 57 57  0  0  0  0  0  0  0  0999 V2000
   -2.1894   -0.5999   -0.5887 P   0  0  2  0  0  0  0  0  0  0  0  0
    2.1894   -0.5998    0.5887 P   0  0  2  0  0  0  0  0  0  0  0  0
   -2.2366    1.1517   -1.2033 C   0  0  0  0  0  0  0  0  0  0  0  0
   -2.1169    1.0990   -2.3092 H   0  0  0  0  0  0  0  0  0  0  0  0
   -3.2238    1.6274   -1.0271 H   0  0  0  0  0  0  0  0  0  0  0  0
   -1.0872    1.9106   -0.5712 C   0  0  0  0  0  0  0  0  0  0  0  0
   -1.0880    3.3276   -0.5765 C   0  0  0  0  0  0  0  0  0  0  0  0
   -0.0001    4.0056   -0.0000 C   0  0  0  0  0  0  0  0  0  0  0  0
   -0.0001    5.1080   -0.0000 H   0  0  0  0  0  0  0  0  0  0  0  0
    1.0878    3.3276    0.5764 C   0  0  0  0  0  0  0  0  0  0  0  0
    1.0871    1.9106    0.5712 C   0  0  0  0  0  0  0  0  0  0  0  0
   -0.0000    1.1860   -0.0000 C   0  0  0  0  0  3  0  0  0  0  0  0
   -2.2246    4.1058   -1.1938 C   0  0  0  0  0  0  0  0  0  0  0  0
   -2.0438    5.1966   -1.1362 H   0  0  0  0  0  0  0  0  0  0  0  0
   -3.1913    3.9004   -0.6848 H   0  0  0  0  0  0  0  0  0  0  0  0
   -2.3723    3.8437   -2.2631 H   0  0  0  0  0  0  0  0  0  0  0  0
    2.2244    4.1059    1.1938 C   0  0  0  0  0  0  0  0  0  0  0  0
    3.1911    3.9005    0.6848 H   0  0  0  0  0  0  0  0  0  0  0  0
    2.3721    3.8438    2.2630 H   0  0  0  0  0  0  0  0  0  0  0  0
    2.0436    5.1967    1.1362 H   0  0  0  0  0  0  0  0  0  0  0  0
    2.2365    1.1518    1.2033 C   0  0  0  0  0  0  0  0  0  0  0  0
    2.1168    1.0991    2.3092 H   0  0  0  0  0  0  0  0  0  0  0  0
    3.2237    1.6275    1.0271 H   0  0  0  0  0  0  0  0  0  0  0  0
   -2.8410   -1.6606   -1.9368 C   0  0  0  0  0  0  0  0  0  0  0  0
   -2.6900   -2.7162   -1.6391 H   0  0  0  0  0  0  0  0  0  0  0  0
   -2.2262   -1.4752   -2.8387 H   0  0  0  0  0  0  0  0  0  0  0  0
   -3.9076   -1.4687   -2.1671 H   0  0  0  0  0  0  0  0  0  0  0  0
   -3.4171   -0.7266    0.8395 C   0  0  0  0  0  0  0  0  0  0  0  0
   -4.8314   -0.3068    0.4138 C   0  0  0  0  0  0  0  0  0  0  0  0
   -5.2327   -0.9458   -0.3984 H   0  0  0  0  0  0  0  0  0  0  0  0
   -4.8735    0.7497    0.0793 H   0  0  0  0  0  0  0  0  0  0  0  0
   -5.5218   -0.4042    1.2785 H   0  0  0  0  0  0  0  0  0  0  0  0
   -2.8967    0.1932    1.9580 C   0  0  0  0  0  0  0  0  0  0  0  0
   -2.8469    1.2542    1.6397 H   0  0  0  0  0  0  0  0  0  0  0  0
   -1.8781   -0.1068    2.2759 H   0  0  0  0  0  0  0  0  0  0  0  0
   -3.5750    0.1293    2.8352 H   0  0  0  0  0  0  0  0  0  0  0  0
   -3.4035   -2.1918    1.3124 C   0  0  0  0  0  0  0  0  0  0  0  0
   -2.3705   -2.5475    1.5037 H   0  0  0  0  0  0  0  0  0  0  0  0
   -3.8572   -2.8704    0.5623 H   0  0  0  0  0  0  0  0  0  0  0  0
   -3.9954   -2.2837    2.2477 H   0  0  0  0  0  0  0  0  0  0  0  0
    2.8409   -1.6605    1.9369 C   0  0  0  0  0  0  0  0  0  0  0  0
    3.9075   -1.4686    2.1672 H   0  0  0  0  0  0  0  0  0  0  0  0
    2.6901   -2.7161    1.6390 H   0  0  0  0  0  0  0  0  0  0  0  0
    2.2260   -1.4752    2.8387 H   0  0  0  0  0  0  0  0  0  0  0  0
    3.4171   -0.7265   -0.8394 C   0  0  0  0  0  0  0  0  0  0  0  0
    2.8968    0.1932   -1.9580 C   0  0  0  0  0  0  0  0  0  0  0  0
    3.5751    0.1293   -2.8351 H   0  0  0  0  0  0  0  0  0  0  0  0
    2.8468    1.2542   -1.6397 H   0  0  0  0  0  0  0  0  0  0  0  0
    1.8782   -0.1069   -2.2760 H   0  0  0  0  0  0  0  0  0  0  0  0
    4.8315   -0.3065   -0.4137 C   0  0  0  0  0  0  0  0  0  0  0  0
    4.8735    0.7500   -0.0792 H   0  0  0  0  0  0  0  0  0  0  0  0
    5.5219   -0.4040   -1.2783 H   0  0  0  0  0  0  0  0  0  0  0  0
    5.2327   -0.9455    0.3986 H   0  0  0  0  0  0  0  0  0  0  0  0
    3.4037   -2.1917   -1.3123 C   0  0  0  0  0  0  0  0  0  0  0  0
    3.8575   -2.8702   -0.5620 H   0  0  0  0  0  0  0  0  0  0  0  0
    3.9956   -2.2836   -2.2475 H   0  0  0  0  0  0  0  0  0  0  0  0
    2.3707   -2.5475   -1.5036 H   0  0  0  0  0  0  0  0  0  0  0  0
  1 24  1  6  0  0  0
  1 28  1  0  0  0  0
  2 45  1  6  0  0  0
  2 21  1  0  0  0  0
  2 41  1  0  0  0  0
  3  5  1  0  0  0  0
  3  1  1  0  0  0  0
  3  6  1  0  0  0  0
  4  3  1  0  0  0  0
  6 12  1  0  0  0  0
  7  6  2  0  0  0  0
  7  8  1  0  0  0  0
  8  9  1  0  0  0  0
  8 10  2  0  0  0  0
 10 17  1  0  0  0  0
 11 10  1  0  0  0  0
 11 21  1  0  0  0  0
 12 11  2  0  0  0  0
 13 14  1  0  0  0  0
 13 15  1  0  0  0  0
 13  7  1  0  0  0  0
 16 13  1  0  0  0  0
 17 19  1  0  0  0  0
 18 17  1  0  0  0  0
 20 17  1  0  0  0  0
 21 22  1  0  0  0  0
 23 21  1  0  0  0  0
 24 25  1  0  0  0  0
 26 24  1  0  0  0  0
 27 24  1  0  0  0  0
 28 37  1  0  0  0  0
 28 33  1  0  0  0  0
 29 28  1  0  0  0  0
 29 32  1  0  0  0  0
 30 29  1  0  0  0  0
 31 29  1  0  0  0  0
 33 35  1  0  0  0  0
 33 36  1  0  0  0  0
 34 33  1  0  0  0  0
 37 38  1  0  0  0  0
 37 40  1  0  0  0  0
 39 37  1  0  0  0  0
 41 42  1  0  0  0  0
 41 44  1  0  0  0  0
 43 41  1  0  0  0  0
 45 50  1  0  0  0  0
 46 48  1  0  0  0  0
 46 45  1  0  0  0  0
 47 46  1  0  0  0  0
 49 46  1  0  0  0  0
 50 51  1  0  0  0  0
 50 53  1  0  0  0  0
 52 50  1  0  0  0  0
 54 45  1  0  0  0  0
 54 55  1  0  0  0  0
 56 54  1  0  0  0  0
 57 54  1  0  0  0  0
M  END
