1,2,5
q = 0.0, confidence = 0.998

 71 77  0  0  0  0  0  0  0  0999 V2000
    2.2356   -0.6663    0.0783 P   0  0  0  0  0  0  0  0  0  0  0  0
   -2.2357   -0.6661   -0.0784 P   0  0  0  0  0  0  0  0  0  0  0  0
    1.1407    1.8240    0.2781 N   0  0  0  0  0  0  0  0  0  0  0  0
   -1.1406    1.8242   -0.2776 N   0  0  0  0  0  0  0  0  0  0  0  0
    0.0000    1.0612    0.0001 C   0  0  0  0  0  2  0  0  0  0  0  0
    1.1699    3.2270    0.3864 C   0  0  0  0  0  0  0  0  0  0  0  0
    2.2971    3.9316    0.8313 C   0  0  0  0  0  0  0  0  0  0  0  0
    2.2819    5.3472    0.8536 C   0  0  0  0  0  0  0  0  0  0  0  0
    1.1727    6.0668    0.4375 C   0  0  0  0  0  0  0  0  0  0  0  0
    0.0003    5.3848    0.0003 C   0  0  0  0  0  0  0  0  0  0  0  0
   -1.1721    6.0670   -0.4368 C   0  0  0  0  0  0  0  0  0  0  0  0
   -2.2814    5.3475   -0.8528 C   0  0  0  0  0  0  0  0  0  0  0  0
   -2.2967    3.9320   -0.8306 C   0  0  0  0  0  0  0  0  0  0  0  0
   -1.1696    3.2272   -0.3859 C   0  0  0  0  0  0  0  0  0  0  0  0
    0.0002    3.9476    0.0003 C   0  0  0  0  0  0  0  0  0  0  0  0
    2.3869    1.1254    0.5782 C   0  0  0  0  0  0  0  0  0  0  0  0
   -2.3870    1.1258   -0.5778 C   0  0  0  0  0  0  0  0  0  0  0  0
    3.3426   -1.5173    1.2676 C   0  0  0  0  0  0  0  0  0  0  0  0
    4.6550   -1.0537    1.5052 C   0  0  0  0  0  0  0  0  0  0  0  0
    5.4675   -1.7013    2.4462 C   0  0  0  0  0  0  0  0  0  0  0  0
    4.9792   -2.8202    3.1431 C   0  0  0  0  0  0  0  0  0  0  0  0
    3.6801   -3.2902    2.8969 C   0  0  0  0  0  0  0  0  0  0  0  0
    2.8552   -2.6411    1.9635 C   0  0  0  0  0  0  0  0  0  0  0  0
    3.1432   -0.7420   -1.5180 C   0  0  0  0  0  0  0  0  0  0  0  0
    4.0634   -1.7713   -1.7971 C   0  0  0  0  0  0  0  0  0  0  0  0
    4.6833   -1.8377   -3.0549 C   0  0  0  0  0  0  0  0  0  0  0  0
    4.3934   -0.8803   -4.0387 C   0  0  0  0  0  0  0  0  0  0  0  0
    3.4688    0.1427   -3.7668 C   0  0  0  0  0  0  0  0  0  0  0  0
    2.8373    0.2066   -2.5178 C   0  0  0  0  0  0  0  0  0  0  0  0
   -3.3429   -1.5166   -1.2678 C   0  0  0  0  0  0  0  0  0  0  0  0
   -2.8556   -2.6398   -1.9647 C   0  0  0  0  0  0  0  0  0  0  0  0
   -3.6806   -3.2884   -2.8982 C   0  0  0  0  0  0  0  0  0  0  0  0
   -4.9800   -2.8185   -3.1436 C   0  0  0  0  0  0  0  0  0  0  0  0
   -5.4683   -1.7003   -2.4457 C   0  0  0  0  0  0  0  0  0  0  0  0
   -4.6556   -1.0532   -1.5045 C   0  0  0  0  0  0  0  0  0  0  0  0
   -3.1430   -0.7422    1.5180 C   0  0  0  0  0  0  0  0  0  0  0  0
   -2.8375    0.2066    2.5179 C   0  0  0  0  0  0  0  0  0  0  0  0
   -3.4687    0.1422    3.7670 C   0  0  0  0  0  0  0  0  0  0  0  0
   -4.3927   -0.8814    4.0389 C   0  0  0  0  0  0  0  0  0  0  0  0
   -4.6823   -1.8389    3.0551 C   0  0  0  0  0  0  0  0  0  0  0  0
   -4.0625   -1.7721    1.7972 C   0  0  0  0  0  0  0  0  0  0  0  0
    3.1984    3.4060    1.1651 H   0  0  0  0  0  0  0  0  0  0  0  0
    3.1805    5.8771    1.2041 H   0  0  0  0  0  0  0  0  0  0  0  0
    1.1788    7.1668    0.4422 H   0  0  0  0  0  0  0  0  0  0  0  0
   -1.1780    7.1670   -0.4414 H   0  0  0  0  0  0  0  0  0  0  0  0
   -3.1799    5.8776   -1.2033 H   0  0  0  0  0  0  0  0  0  0  0  0
   -3.1982    3.4065   -1.1644 H   0  0  0  0  0  0  0  0  0  0  0  0
    2.5971    1.1541    1.6696 H   0  0  0  0  0  0  0  0  0  0  0  0
    3.2255    1.6217    0.0495 H   0  0  0  0  0  0  0  0  0  0  0  0
   -2.5973    1.1548   -1.6692 H   0  0  0  0  0  0  0  0  0  0  0  0
   -3.2254    1.6220   -0.0488 H   0  0  0  0  0  0  0  0  0  0  0  0
    5.0491   -0.1907    0.9449 H   0  0  0  0  0  0  0  0  0  0  0  0
    6.4886   -1.3352    2.6337 H   0  0  0  0  0  0  0  0  0  0  0  0
    5.6198   -3.3296    3.8794 H   0  0  0  0  0  0  0  0  0  0  0  0
    3.3001   -4.1713    3.4361 H   0  0  0  0  0  0  0  0  0  0  0  0
    1.8370   -3.0054    1.7444 H   0  0  0  0  0  0  0  0  0  0  0  0
    4.2957   -2.5226   -1.0276 H   0  0  0  0  0  0  0  0  0  0  0  0
    5.4002   -2.6461   -3.2655 H   0  0  0  0  0  0  0  0  0  0  0  0
    4.8831   -0.9338   -5.0229 H   0  0  0  0  0  0  0  0  0  0  0  0
    3.2297    0.8910   -4.5378 H   0  0  0  0  0  0  0  0  0  0  0  0
    2.0886    0.9901   -2.3202 H   0  0  0  0  0  0  0  0  0  0  0  0
   -1.8372   -3.0041   -1.7462 H   0  0  0  0  0  0  0  0  0  0  0  0
   -3.3007   -4.1690   -3.4382 H   0  0  0  0  0  0  0  0  0  0  0  0
   -5.6207   -3.3276   -3.8800 H   0  0  0  0  0  0  0  0  0  0  0  0
   -6.4895   -1.3342   -2.6325 H   0  0  0  0  0  0  0  0  0  0  0  0
   -5.0496   -0.1907   -0.9435 H   0  0  0  0  0  0  0  0  0  0  0  0
   -2.0893    0.9904    2.3202 H   0  0  0  0  0  0  0  0  0  0  0  0
   -3.2301    0.8906    4.5379 H   0  0  0  0  0  0  0  0  0  0  0  0
   -4.8823   -0.9352    5.0231 H   0  0  0  0  0  0  0  0  0  0  0  0
   -5.3986   -2.6477    3.2657 H   0  0  0  0  0  0  0  0  0  0  0  0
   -4.2945   -2.5234    1.0276 H   0  0  0  0  0  0  0  0  0  0  0  0
  1 16  1  0  0  0  0
  1 18  1  0  0  0  0
  2 36  1  0  0  0  0
  3  6  1  0  0  0  0
  3 16  1  0  0  0  0
  4  5  1  0  0  0  0
  5  3  1  0  0  0  0
  6  7  1  0  0  0  0
  7  8  2  0  0  0  0
  7 42  1  0  0  0  0
  8 43  1  0  0  0  0
  9 44  1  0  0  0  0
  9  8  1  0  0  0  0
 10  9  2  0  0  0  0
 11 10  1  0  0  0  0
 12 13  1  0  0  0  0
 12 11  2  0  0  0  0
 13 14  2  0  0  0  0
 14  4  1  0  0  0  0
 14 15  1  0  0  0  0
 15 10  1  0  0  0  0
 15  6  2  0  0  0  0
 16 48  1  0  0  0  0
 17  4  1  0  0  0  0
 17  2  1  0  0  0  0
 17 51  1  0  0  0  0
 18 19  2  0  0  0  0
 18 23  1  0  0  0  0
 19 20  1  0  0  0  0
 20 53  1  0  0  0  0
 20 21  2  0  0  0  0
 21 54  1  0  0  0  0
 22 21  1  0  0  0  0
 22 55  1  0  0  0  0
 23 22  2  0  0  0  0
 24  1  1  0  0  0  0
 25 24  1  0  0  0  0
 25 57  1  0  0  0  0
 26 25  2  0  0  0  0
 27 28  2  0  0  0  0
 27 26  1  0  0  0  0
 28 29  1  0  0  0  0
 29 61  1  0  0  0  0
 29 24  2  0  0  0  0
 30  2  1  0  0  0  0
 31 62  1  0  0  0  0
 31 30  2  0  0  0  0
 32 31  1  0  0  0  0
 33 32  2  0  0  0  0
 33 34  1  0  0  0  0
 34 35  2  0  0  0  0
 35 30  1  0  0  0  0
 35 66  1  0  0  0  0
 36 41  2  0  0  0  0
 36 37  1  0  0  0  0
 37 38  2  0  0  0  0
 38 39  1  0  0  0  0
 38 68  1  0  0  0  0
 39 69  1  0  0  0  0
 40 70  1  0  0  0  0
 40 39  2  0  0  0  0
 41 40  1  0  0  0  0
 45 11  1  0  0  0  0
 46 12  1  0  0  0  0
 47 13  1  0  0  0  0
 49 16  1  0  0  0  0
 50 17  1  0  0  0  0
 52 19  1  0  0  0  0
 56 23  1  0  0  0  0
 58 26  1  0  0  0  0
 59 27  1  0  0  0  0
 60 28  1  0  0  0  0
 63 32  1  0  0  0  0
 64 33  1  0  0  0  0
 65 34  1  0  0  0  0
 67 37  1  0  0  0  0
 71 41  1  0  0  0  0
M  END
