1,2,4
q = -1.0

 71 72  0  0  1  0  0  0  0  0999 V2000
    2.4333   -0.5282   -0.0164 P   0  0  0  0  0  0  0  0  0  0  0  0
    0.2081    1.4176   -0.4362 C   0  0  2  0  0  3  0  0  0  0  0  0
   -0.7532    1.9390    0.6069 C   0  0  0  0  0  0  0  0  0  0  0  0
   -2.1697   -0.7805   -0.0391 P   0  0  0  0  0  0  0  0  0  0  0  0
    1.6020    2.0426   -0.2909 C   0  0  0  0  0  0  0  0  0  0  0  0
   -0.3611    2.4046    1.8239 C   0  0  0  0  0  0  0  0  0  0  0  0
    0.7006    2.4403    2.1091 H   0  0  0  0  0  0  0  0  0  0  0  0
   -1.1022    2.7232    2.5721 H   0  0  0  0  0  0  0  0  0  0  0  0
   -0.2422    1.6594   -1.8908 C   0  0  0  0  0  0  0  0  0  0  0  0
   -0.2838    2.7470   -2.1285 H   0  0  0  0  0  0  0  0  0  0  0  0
   -1.2439    1.2416   -2.0941 H   0  0  0  0  0  0  0  0  0  0  0  0
    0.4707    1.1920   -2.5971 H   0  0  0  0  0  0  0  0  0  0  0  0
    2.7708    1.2580   -0.1855 C   0  0  0  0  0  0  0  0  0  0  0  0
    4.0520    1.8507   -0.2049 C   0  0  0  0  0  0  0  0  0  0  0  0
    4.9528    1.2209   -0.1528 H   0  0  0  0  0  0  0  0  0  0  0  0
    4.1799    3.2416   -0.2939 C   0  0  0  0  0  0  0  0  0  0  0  0
    5.1773    3.7066   -0.3045 H   0  0  0  0  0  0  0  0  0  0  0  0
    3.0231    4.0388   -0.3656 C   0  0  0  0  0  0  0  0  0  0  0  0
    3.1142    5.1342   -0.4287 H   0  0  0  0  0  0  0  0  0  0  0  0
    1.7548    3.4464   -0.3694 C   0  0  0  0  0  0  0  0  0  0  0  0
    0.8572    4.0800   -0.4344 H   0  0  0  0  0  0  0  0  0  0  0  0
   -2.8408    3.2682    0.2703 C   0  0  0  0  0  0  0  0  0  0  0  0
   -2.2433    4.1472    0.5548 H   0  0  0  0  0  0  0  0  0  0  0  0
   -4.1878    3.4164   -0.0862 C   0  0  0  0  0  0  0  0  0  0  0  0
   -4.6518    4.4144   -0.0698 H   0  0  0  0  0  0  0  0  0  0  0  0
   -4.9357    2.2956   -0.4751 C   0  0  0  0  0  0  0  0  0  0  0  0
   -5.9920    2.4014   -0.7651 H   0  0  0  0  0  0  0  0  0  0  0  0
   -4.3285    1.0321   -0.4869 C   0  0  0  0  0  0  0  0  0  0  0  0
   -4.9245    0.1558   -0.7824 H   0  0  0  0  0  0  0  0  0  0  0  0
   -2.9765    0.8691   -0.1204 C   0  0  0  0  0  0  0  0  0  0  0  0
   -2.2077    2.0056    0.2552 C   0  0  0  0  0  0  0  0  0  0  0  0
    3.3950   -1.3636   -1.3837 C   0  0  0  0  0  0  0  0  0  0  0  0
    4.4390   -0.9855   -1.2995 H   0  0  0  0  0  0  0  0  0  0  0  0
    3.1508   -1.1077    1.6077 C   0  0  0  0  0  0  0  0  0  0  0  0
    2.7945   -2.1621    1.6302 H   0  0  0  0  0  0  0  0  0  0  0  0
    2.8110   -0.9146   -2.7289 C   0  0  0  0  0  0  0  0  0  0  0  0
    2.8396    0.1874   -2.8452 H   0  0  0  0  0  0  0  0  0  0  0  0
    1.7541   -1.2405   -2.8211 H   0  0  0  0  0  0  0  0  0  0  0  0
    3.3856   -1.3629   -3.5656 H   0  0  0  0  0  0  0  0  0  0  0  0
    3.3798   -2.8881   -1.2257 C   0  0  0  0  0  0  0  0  0  0  0  0
    3.8755   -3.3617   -2.0986 H   0  0  0  0  0  0  0  0  0  0  0  0
    2.3403   -3.2677   -1.1513 H   0  0  0  0  0  0  0  0  0  0  0  0
    3.9151   -3.2205   -0.3145 H   0  0  0  0  0  0  0  0  0  0  0  0
    4.6769   -1.0613    1.7117 C   0  0  0  0  0  0  0  0  0  0  0  0
    5.0498   -0.0173    1.7368 H   0  0  0  0  0  0  0  0  0  0  0  0
    5.1814   -1.5906    0.8791 H   0  0  0  0  0  0  0  0  0  0  0  0
    5.0030   -1.5456    2.6560 H   0  0  0  0  0  0  0  0  0  0  0  0
   -2.9655   -1.7735   -1.4159 C   0  0  0  0  0  0  0  0  0  0  0  0
   -4.0630   -1.6201   -1.3218 H   0  0  0  0  0  0  0  0  0  0  0  0
   -2.7847   -1.5295    1.5648 C   0  0  0  0  0  0  0  0  0  0  0  0
   -2.2801   -2.5212    1.5474 H   0  0  0  0  0  0  0  0  0  0  0  0
   -2.5044   -1.2228   -2.7704 C   0  0  0  0  0  0  0  0  0  0  0  0
   -2.7824   -0.1583   -2.9045 H   0  0  0  0  0  0  0  0  0  0  0  0
   -2.9700   -1.8007   -3.5954 H   0  0  0  0  0  0  0  0  0  0  0  0
   -1.4025   -1.3052   -2.8710 H   0  0  0  0  0  0  0  0  0  0  0  0
   -2.6650   -3.2703   -1.2762 C   0  0  0  0  0  0  0  0  0  0  0  0
   -1.5739   -3.4598   -1.2306 H   0  0  0  0  0  0  0  0  0  0  0  0
   -3.0923   -3.8152   -2.1437 H   0  0  0  0  0  0  0  0  0  0  0  0
   -3.1071   -3.7025   -0.3573 H   0  0  0  0  0  0  0  0  0  0  0  0
   -4.3021   -1.6963    1.6494 C   0  0  0  0  0  0  0  0  0  0  0  0
   -4.8182   -0.7142    1.6497 H   0  0  0  0  0  0  0  0  0  0  0  0
   -4.5710   -2.2103    2.5961 H   0  0  0  0  0  0  0  0  0  0  0  0
   -4.7140   -2.3029    0.8182 H   0  0  0  0  0  0  0  0  0  0  0  0
   -2.2171   -0.7316    2.7432 C   0  0  0  0  0  0  0  0  0  0  0  0
   -1.1130   -0.6645    2.6832 H   0  0  0  0  0  0  0  0  0  0  0  0
   -2.4849   -1.2266    3.6994 H   0  0  0  0  0  0  0  0  0  0  0  0
   -2.6214    0.3015    2.7692 H   0  0  0  0  0  0  0  0  0  0  0  0
    2.4633   -0.3490    2.7485 C   0  0  0  0  0  0  0  0  0  0  0  0
    2.7324    0.7277    2.7362 H   0  0  0  0  0  0  0  0  0  0  0  0
    2.7745   -0.7671    3.7279 H   0  0  0  0  0  0  0  0  0  0  0  0
    1.3604   -0.4279    2.6715 H   0  0  0  0  0  0  0  0  0  0  0  0
  1 34  1  0  0  0  0
  2  5  1  0  0  0  0
  2  3  1  1  0  0  0
  3  6  2  0  0  0  0
  4 50  1  0  0  0  0
  5 13  1  0  0  0  0
  6  7  1  0  0  0  0
  6  8  1  0  0  0  0
  9  2  1  0  0  0  0
 10  9  1  0  0  0  0
 11  9  1  0  0  0  0
 12  9  1  0  0  0  0
 13  1  1  0  0  0  0
 14 13  2  0  0  0  0
 14 15  1  0  0  0  0
 16 14  1  0  0  0  0
 17 16  1  0  0  0  0
 18 16  2  0  0  0  0
 19 18  1  0  0  0  0
 20 18  1  0  0  0  0
 20  5  2  0  0  0  0
 21 20  1  0  0  0  0
 22 23  1  0  0  0  0
 24 25  1  0  0  0  0
 24 22  2  0  0  0  0
 26 24  1  0  0  0  0
 27 26  1  0  0  0  0
 28 26  2  0  0  0  0
 28 30  1  0  0  0  0
 29 28  1  0  0  0  0
 30  4  1  0  0  0  0
 30 31  2  0  0  0  0
 31 22  1  0  0  0  0
 31  3  1  0  0  0  0
 32 33  1  0  0  0  0
 32 40  1  0  0  0  0
 32  1  1  0  0  0  0
 34 35  1  0  0  0  0
 34 44  1  0  0  0  0
 34 68  1  0  0  0  0
 36 32  1  0  0  0  0
 37 36  1  0  0  0  0
 38 36  1  0  0  0  0
 39 36  1  0  0  0  0
 40 42  1  0  0  0  0
 40 43  1  0  0  0  0
 41 40  1  0  0  0  0
 44 45  1  0  0  0  0
 44 47  1  0  0  0  0
 46 44  1  0  0  0  0
 48 49  1  0  0  0  0
 48 56  1  0  0  0  0
 48  4  1  0  0  0  0
 50 60  1  0  0  0  0
 50 64  1  0  0  0  0
 51 50  1  0  0  0  0
 52 48  1  0  0  0  0
 53 52  1  0  0  0  0
 54 52  1  0  0  0  0
 55 52  1  0  0  0  0
 56 57  1  0  0  0  0
 56 59  1  0  0  0  0
 58 56  1  0  0  0  0
 60 61  1  0  0  0  0
 60 62  1  0  0  0  0
 63 60  1  0  0  0  0
 64 67  1  0  0  0  0
 64 66  1  0  0  0  0
 65 64  1  0  0  0  0
 68 70  1  0  0  0  0
 69 68  1  0  0  0  0
 71 68  1  0  0  0  0
M  END
