1,2,4
q = 0.0, confidence = 0.554

 70 70  0  0  1  0  0  0  0  0999 V2000
    2.2809   -0.0894   -0.0539 P   0  0  0  0  0  0  0  0  0  0  0  0
    0.0000    1.4232   -0.5891 C   0  0  0  0  0  2  0  0  0  0  0  0
    2.4652    1.5126   -0.5704 O   0  0  0  0  0  0  0  0  0  0  0  0
   -2.2809   -0.0894   -0.0539 P   0  0  0  0  0  0  0  0  0  0  0  0
   -2.4652    1.5126   -0.5704 O   0  0  0  0  0  0  0  0  0  0  0  0
    1.2634    2.2183   -0.8718 C   0  0  2  0  0  0  0  0  0  0  0  0
    1.2707    2.4389   -1.9698 H   0  0  0  0  0  0  0  0  0  0  0  0
    1.2605    3.5617   -0.1174 C   0  0  0  0  0  0  0  0  0  0  0  0
    2.1830    4.1191   -0.3772 H   0  0  0  0  0  0  0  0  0  0  0  0
    1.3061    3.3390    0.9699 H   0  0  0  0  0  0  0  0  0  0  0  0
    0.0000    4.3682   -0.4370 C   0  0  0  0  0  0  0  0  0  0  0  0
    0.0000    5.3183    0.1349 H   0  0  0  0  0  0  0  0  0  0  0  0
    0.0000    4.6538   -1.5128 H   0  0  0  0  0  0  0  0  0  0  0  0
   -1.2605    3.5617   -0.1174 C   0  0  0  0  0  0  0  0  0  0  0  0
   -1.3061    3.3390    0.9699 H   0  0  0  0  0  0  0  0  0  0  0  0
   -2.1830    4.1191   -0.3772 H   0  0  0  0  0  0  0  0  0  0  0  0
   -1.2634    2.2183   -0.8718 C   0  0  1  0  0  0  0  0  0  0  0  0
   -1.2706    2.4389   -1.9698 H   0  0  0  0  0  0  0  0  0  0  0  0
    3.2747   -0.0659    1.5580 C   0  0  0  0  0  0  0  0  0  0  0  0
    2.3308    0.5913    2.5860 C   0  0  0  0  0  0  0  0  0  0  0  0
    2.0710    1.6285    2.2944 H   0  0  0  0  0  0  0  0  0  0  0  0
    1.3869    0.0206    2.6895 H   0  0  0  0  0  0  0  0  0  0  0  0
    2.8383    0.6304    3.5733 H   0  0  0  0  0  0  0  0  0  0  0  0
    4.5636    0.7641    1.4556 C   0  0  0  0  0  0  0  0  0  0  0  0
    4.3560    1.7754    1.0553 H   0  0  0  0  0  0  0  0  0  0  0  0
    5.0034    0.8766    2.4696 H   0  0  0  0  0  0  0  0  0  0  0  0
    5.3268    0.2874    0.8140 H   0  0  0  0  0  0  0  0  0  0  0  0
    3.5586   -1.5156    1.9864 C   0  0  0  0  0  0  0  0  0  0  0  0
    4.3361   -1.9893    1.3557 H   0  0  0  0  0  0  0  0  0  0  0  0
    3.9339   -1.5194    3.0318 H   0  0  0  0  0  0  0  0  0  0  0  0
    2.6406   -2.1387    1.9494 H   0  0  0  0  0  0  0  0  0  0  0  0
    3.1490   -1.0306   -1.4531 C   0  0  0  0  0  0  0  0  0  0  0  0
    4.6280   -0.6541   -1.6143 C   0  0  0  0  0  0  0  0  0  0  0  0
    4.7636    0.4439   -1.6785 H   0  0  0  0  0  0  0  0  0  0  0  0
    5.2492   -1.0404   -0.7831 H   0  0  0  0  0  0  0  0  0  0  0  0
    5.0207   -1.1012   -2.5528 H   0  0  0  0  0  0  0  0  0  0  0  0
    2.9740   -2.5431   -1.2284 C   0  0  0  0  0  0  0  0  0  0  0  0
    1.9226   -2.8048   -0.9930 H   0  0  0  0  0  0  0  0  0  0  0  0
    3.2743   -3.0837   -2.1511 H   0  0  0  0  0  0  0  0  0  0  0  0
    3.6044   -2.9202   -0.4015 H   0  0  0  0  0  0  0  0  0  0  0  0
    2.3731   -0.6171   -2.7209 C   0  0  0  0  0  0  0  0  0  0  0  0
    2.4969    0.4621   -2.9388 H   0  0  0  0  0  0  0  0  0  0  0  0
    2.7614   -1.1910   -3.5884 H   0  0  0  0  0  0  0  0  0  0  0  0
    1.2895   -0.8290   -2.6119 H   0  0  0  0  0  0  0  0  0  0  0  0
   -3.1490   -1.0306   -1.4531 C   0  0  0  0  0  0  0  0  0  0  0  0
   -4.6280   -0.6540   -1.6144 C   0  0  0  0  0  0  0  0  0  0  0  0
   -4.7635    0.4439   -1.6786 H   0  0  0  0  0  0  0  0  0  0  0  0
   -5.0206   -1.1011   -2.5528 H   0  0  0  0  0  0  0  0  0  0  0  0
   -5.2493   -1.0402   -0.7832 H   0  0  0  0  0  0  0  0  0  0  0  0
   -2.3730   -0.6172   -2.7209 C   0  0  0  0  0  0  0  0  0  0  0  0
   -2.4968    0.4620   -2.9388 H   0  0  0  0  0  0  0  0  0  0  0  0
   -1.2895   -0.8291   -2.6119 H   0  0  0  0  0  0  0  0  0  0  0  0
   -2.7614   -1.1911   -3.5884 H   0  0  0  0  0  0  0  0  0  0  0  0
   -2.9741   -2.5431   -1.2283 C   0  0  0  0  0  0  0  0  0  0  0  0
   -1.9227   -2.8048   -0.9929 H   0  0  0  0  0  0  0  0  0  0  0  0
   -3.6045   -2.9201   -0.4014 H   0  0  0  0  0  0  0  0  0  0  0  0
   -3.2744   -3.0837   -2.1510 H   0  0  0  0  0  0  0  0  0  0  0  0
   -3.2747   -0.0659    1.5580 C   0  0  0  0  0  0  0  0  0  0  0  0
   -3.5586   -1.5156    1.9864 C   0  0  0  0  0  0  0  0  0  0  0  0
   -2.6406   -2.1387    1.9494 H   0  0  0  0  0  0  0  0  0  0  0  0
   -3.9339   -1.5195    3.0318 H   0  0  0  0  0  0  0  0  0  0  0  0
   -4.3361   -1.9893    1.3556 H   0  0  0  0  0  0  0  0  0  0  0  0
   -4.5636    0.7641    1.4556 C   0  0  0  0  0  0  0  0  0  0  0  0
   -4.3560    1.7754    1.0553 H   0  0  0  0  0  0  0  0  0  0  0  0
   -5.3268    0.2874    0.8140 H   0  0  0  0  0  0  0  0  0  0  0  0
   -5.0034    0.8766    2.4696 H   0  0  0  0  0  0  0  0  0  0  0  0
   -2.3308    0.5913    2.5860 C   0  0  0  0  0  0  0  0  0  0  0  0
   -2.0710    1.6285    2.2944 H   0  0  0  0  0  0  0  0  0  0  0  0
   -2.8383    0.6304    3.5733 H   0  0  0  0  0  0  0  0  0  0  0  0
   -1.3869    0.0206    2.6895 H   0  0  0  0  0  0  0  0  0  0  0  0
  1 19  1  0  0  0  0
  3  1  1  0  0  0  0
  4 58  1  0  0  0  0
  5  4  1  0  0  0  0
  6  7  1  6  0  0  0
  6  2  1  0  0  0  0
  6  3  1  0  0  0  0
  6  8  1  0  0  0  0
  8 10  1  0  0  0  0
  9  8  1  0  0  0  0
 11  8  1  0  0  0  0
 11 14  1  0  0  0  0
 11 12  1  0  0  0  0
 13 11  1  0  0  0  0
 14 15  1  0  0  0  0
 16 14  1  0  0  0  0
 17 18  1  6  0  0  0
 17  2  1  0  0  0  0
 17  5  1  0  0  0  0
 17 14  1  0  0  0  0
 19 28  1  0  0  0  0
 19 20  1  0  0  0  0
 20 22  1  0  0  0  0
 20 23  1  0  0  0  0
 21 20  1  0  0  0  0
 24 19  1  0  0  0  0
 24 26  1  0  0  0  0
 25 24  1  0  0  0  0
 27 24  1  0  0  0  0
 28 30  1  0  0  0  0
 29 28  1  0  0  0  0
 31 28  1  0  0  0  0
 32 37  1  0  0  0  0
 32  1  1  0  0  0  0
 33 32  1  0  0  0  0
 33 35  1  0  0  0  0
 34 33  1  0  0  0  0
 36 33  1  0  0  0  0
 37 38  1  0  0  0  0
 37 40  1  0  0  0  0
 39 37  1  0  0  0  0
 41 44  1  0  0  0  0
 41 32  1  0  0  0  0
 42 41  1  0  0  0  0
 43 41  1  0  0  0  0
 45 54  1  0  0  0  0
 45  4  1  0  0  0  0
 46 45  1  0  0  0  0
 46 49  1  0  0  0  0
 47 46  1  0  0  0  0
 48 46  1  0  0  0  0
 50 52  1  0  0  0  0
 50 45  1  0  0  0  0
 51 50  1  0  0  0  0
 53 50  1  0  0  0  0
 54 55  1  0  0  0  0
 54 56  1  0  0  0  0
 57 54  1  0  0  0  0
 58 59  1  0  0  0  0
 58 67  1  0  0  0  0
 59 61  1  0  0  0  0
 60 59  1  0  0  0  0
 62 59  1  0  0  0  0
 63 58  1  0  0  0  0
 63 66  1  0  0  0  0
 64 63  1  0  0  0  0
 65 63  1  0  0  0  0
 67 70  1  0  0  0  0
 67 69  1  0  0  0  0
 68 67  1  0  0  0  0
M  END
