1,2,7
q = -1.0

 54 54  0  0  0  0  0  0  0  0999 V2000
    2.1246   -0.3810   -0.0493 P   0  0  0  0  0  0  0  0  0  0  0  0
   -2.1174   -0.4016    0.0501 P   0  0  0  0  0  0  0  0  0  0  0  0
    2.3944    1.3015    0.0648 O   0  0  0  0  0  0  0  0  0  0  0  0
    0.0355    5.4439    0.0001 O   0  0  0  0  0  0  0  0  0  0  0  0
   -0.8793    5.7787   -0.0316 H   0  0  0  0  0  0  0  0  0  0  0  0
   -2.4033    1.2804   -0.0647 O   0  0  0  0  0  0  0  0  0  0  0  0
   -0.0035    1.2370   -0.0001 C   0  0  0  0  0  3  0  0  0  0  0  0
    1.1951    1.9925    0.0381 C   0  0  0  0  0  0  0  0  0  0  0  0
    1.2168    3.3922    0.0381 C   0  0  0  0  0  0  0  0  0  0  0  0
    2.1624    3.9487    0.0642 H   0  0  0  0  0  0  0  0  0  0  0  0
   -0.0131    4.0807   -0.0008 C   0  0  0  0  0  0  0  0  0  0  0  0
   -1.2376    3.3802   -0.0392 C   0  0  0  0  0  0  0  0  0  0  0  0
   -2.2019    3.9099   -0.0659 H   0  0  0  0  0  0  0  0  0  0  0  0
   -1.2079    1.9779   -0.0387 C   0  0  0  0  0  0  0  0  0  0  0  0
    3.0553   -0.7800   -1.6031 C   0  0  0  0  0  0  0  0  0  0  0  0
    4.0450   -0.2842   -1.4906 H   0  0  0  0  0  0  0  0  0  0  0  0
    3.2296   -2.2968   -1.7534 C   0  0  0  0  0  0  0  0  0  0  0  0
    3.6922   -2.5271   -2.7352 H   0  0  0  0  0  0  0  0  0  0  0  0
    2.2494   -2.8136   -1.6953 H   0  0  0  0  0  0  0  0  0  0  0  0
    3.8839   -2.7239   -0.9674 H   0  0  0  0  0  0  0  0  0  0  0  0
    2.3120   -0.1513   -2.7889 C   0  0  0  0  0  0  0  0  0  0  0  0
    2.8851   -0.3100   -3.7255 H   0  0  0  0  0  0  0  0  0  0  0  0
    2.1683    0.9384   -2.6520 H   0  0  0  0  0  0  0  0  0  0  0  0
    1.3114   -0.6136   -2.9137 H   0  0  0  0  0  0  0  0  0  0  0  0
    3.1032   -1.0393    1.3772 C   0  0  0  0  0  0  0  0  0  0  0  0
    3.0756   -2.1387    1.2047 H   0  0  0  0  0  0  0  0  0  0  0  0
    4.5479   -0.5321    1.3990 C   0  0  0  0  0  0  0  0  0  0  0  0
    5.0793   -0.9316    2.2874 H   0  0  0  0  0  0  0  0  0  0  0  0
    4.5718    0.5748    1.4545 H   0  0  0  0  0  0  0  0  0  0  0  0
    5.1184   -0.8438    0.5015 H   0  0  0  0  0  0  0  0  0  0  0  0
    2.3340   -0.7364    2.6705 C   0  0  0  0  0  0  0  0  0  0  0  0
    2.8771   -1.1466    3.5465 H   0  0  0  0  0  0  0  0  0  0  0  0
    1.3249   -1.1937    2.6386 H   0  0  0  0  0  0  0  0  0  0  0  0
    2.2161    0.3563    2.8197 H   0  0  0  0  0  0  0  0  0  0  0  0
   -3.0448   -0.8069    1.6044 C   0  0  0  0  0  0  0  0  0  0  0  0
   -4.0390   -0.3199    1.4924 H   0  0  0  0  0  0  0  0  0  0  0  0
   -3.2059   -2.3251    1.7557 C   0  0  0  0  0  0  0  0  0  0  0  0
   -3.6649   -2.5590    2.7383 H   0  0  0  0  0  0  0  0  0  0  0  0
   -2.2213   -2.8333    1.6962 H   0  0  0  0  0  0  0  0  0  0  0  0
   -3.8576   -2.7582    0.9708 H   0  0  0  0  0  0  0  0  0  0  0  0
   -2.3061   -0.1718    2.7897 C   0  0  0  0  0  0  0  0  0  0  0  0
   -2.8774   -0.3346    3.7267 H   0  0  0  0  0  0  0  0  0  0  0  0
   -2.1706    0.9189    2.6523 H   0  0  0  0  0  0  0  0  0  0  0  0
   -1.3017   -0.6259    2.9141 H   0  0  0  0  0  0  0  0  0  0  0  0
   -3.0917   -1.0692   -1.3750 C   0  0  0  0  0  0  0  0  0  0  0  0
   -3.0548   -2.1680   -1.2003 H   0  0  0  0  0  0  0  0  0  0  0  0
   -2.3253   -0.7631   -2.6692 C   0  0  0  0  0  0  0  0  0  0  0  0
   -2.8652   -1.1796   -3.5442 H   0  0  0  0  0  0  0  0  0  0  0  0
   -1.3127   -1.2124   -2.6362 H   0  0  0  0  0  0  0  0  0  0  0  0
   -2.2157    0.3301   -2.8210 H   0  0  0  0  0  0  0  0  0  0  0  0
   -4.5408   -0.5749   -1.3974 C   0  0  0  0  0  0  0  0  0  0  0  0
   -5.0694   -0.9813   -2.2844 H   0  0  0  0  0  0  0  0  0  0  0  0
   -4.5744    0.5316   -1.4560 H   0  0  0  0  0  0  0  0  0  0  0  0
   -5.1081   -0.8890   -0.4987 H   0  0  0  0  0  0  0  0  0  0  0  0
  1  3  1  0  0  0  0
  1 25  1  0  0  0  0
  2 35  1  0  0  0  0
  5  4  1  0  0  0  0
  6 14  1  0  0  0  0
  6  2  1  0  0  0  0
  7  8  1  0  0  0  0
  8  3  1  0  0  0  0
  9  8  2  0  0  0  0
  9 10  1  0  0  0  0
 11  4  1  0  0  0  0
 11  9  1  0  0  0  0
 12 14  1  0  0  0  0
 12 11  2  0  0  0  0
 13 12  1  0  0  0  0
 14  7  2  0  0  0  0
 15 16  1  0  0  0  0
 15  1  1  0  0  0  0
 17 19  1  0  0  0  0
 17 15  1  0  0  0  0
 17 20  1  0  0  0  0
 18 17  1  0  0  0  0
 21 23  1  0  0  0  0
 21 15  1  0  0  0  0
 22 21  1  0  0  0  0
 24 21  1  0  0  0  0
 25 27  1  0  0  0  0
 25 31  1  0  0  0  0
 26 25  1  0  0  0  0
 27 29  1  0  0  0  0
 27 28  1  0  0  0  0
 30 27  1  0  0  0  0
 31 34  1  0  0  0  0
 31 32  1  0  0  0  0
 33 31  1  0  0  0  0
 35 37  1  0  0  0  0
 35 41  1  0  0  0  0
 36 35  1  0  0  0  0
 37 38  1  0  0  0  0
 39 37  1  0  0  0  0
 40 37  1  0  0  0  0
 41 44  1  0  0  0  0
 41 42  1  0  0  0  0
 43 41  1  0  0  0  0
 45 46  1  0  0  0  0
 45  2  1  0  0  0  0
 47 49  1  0  0  0  0
 47 45  1  0  0  0  0
 48 47  1  0  0  0  0
 50 47  1  0  0  0  0
 51 45  1  0  0  0  0
 51 54  1  0  0  0  0
 52 51  1  0  0  0  0
 53 51  1  0  0  0  0
M  END
