1,2
q = 0.0, confidence = 0.998

 78 84  0  0  1  0  0  0  0  0999 V2000
    1.8461    0.2949   -0.0320 P   0  0  0  0  0  0  0  0  0  0  0  0
   -1.9848    0.0907   -0.1546 P   0  0  0  0  0  0  0  0  0  0  0  0
   -0.1516   -1.3926    1.6229 B   0  0  0  0  0  0  0  0  0  0  0  0
    0.2930   -2.6245    0.7314 C   0  0  1  0  0  3  0  0  0  0  0  0
   -0.6636   -3.3255   -0.0652 C   0  0  0  0  0  3  0  0  0  0  0  0
   -1.7270   -3.0477    0.0033 H   0  0  0  0  0  0  0  0  0  0  0  0
   -0.2795   -4.3698   -0.9200 C   0  0  0  0  0  0  0  0  0  0  0  0
   -1.0329   -4.8686   -1.5475 H   0  0  0  0  0  0  0  0  0  0  0  0
    1.0618   -4.7704   -0.9762 C   0  0  0  0  0  0  0  0  0  0  0  0
    1.3650   -5.5890   -1.6468 H   0  0  0  0  0  0  0  0  0  0  0  0
    2.0221   -4.1292   -0.1695 C   0  0  0  0  0  0  0  0  0  0  0  0
    3.0746   -4.4494   -0.2055 H   0  0  0  0  0  0  0  0  0  0  0  0
    1.6471   -3.0665    0.6552 C   0  0  0  0  0  0  0  0  0  0  0  0
    2.4099   -2.5542    1.2618 H   0  0  0  0  0  0  0  0  0  0  0  0
    2.0000    0.1562    1.7918 C   0  0  0  0  0  0  0  0  0  0  0  0
    0.9336   -0.5431    2.4270 C   0  0  0  0  0  0  0  0  0  0  0  0
    0.9226   -0.5447    3.8433 C   0  0  0  0  0  0  0  0  0  0  0  0
    0.0952   -1.0377    4.3753 H   0  0  0  0  0  0  0  0  0  0  0  0
    1.9476    0.0513    4.5912 C   0  0  0  0  0  0  0  0  0  0  0  0
    1.9115    0.0210    5.6913 H   0  0  0  0  0  0  0  0  0  0  0  0
    3.0218    0.6800    3.9408 C   0  0  0  0  0  0  0  0  0  0  0  0
    3.8337    1.1410    4.5236 H   0  0  0  0  0  0  0  0  0  0  0  0
    3.0427    0.7361    2.5403 C   0  0  0  0  0  0  0  0  0  0  0  0
    3.8725    1.2449    2.0284 H   0  0  0  0  0  0  0  0  0  0  0  0
    3.4741   -0.1288   -0.7783 C   0  0  0  0  0  0  0  0  0  0  0  0
    3.5563   -1.2901   -1.5728 C   0  0  0  0  0  0  0  0  0  0  0  0
    2.6440   -1.8716   -1.7752 H   0  0  0  0  0  0  0  0  0  0  0  0
    4.7842   -1.6583   -2.1449 C   0  0  0  0  0  0  0  0  0  0  0  0
    4.8408   -2.5625   -2.7703 H   0  0  0  0  0  0  0  0  0  0  0  0
    5.9272   -0.8713   -1.9374 C   0  0  0  0  0  0  0  0  0  0  0  0
    6.8882   -1.1630   -2.3886 H   0  0  0  0  0  0  0  0  0  0  0  0
    5.8395    0.3056   -1.1742 C   0  0  0  0  0  0  0  0  0  0  0  0
    6.7276    0.9406   -1.0330 H   0  0  0  0  0  0  0  0  0  0  0  0
    4.6155    0.6825   -0.6043 C   0  0  0  0  0  0  0  0  0  0  0  0
    4.5411    1.6289   -0.0466 H   0  0  0  0  0  0  0  0  0  0  0  0
    1.7134    2.0789   -0.4396 C   0  0  0  0  0  0  0  0  0  0  0  0
    1.7955    3.1265    0.4953 C   0  0  0  0  0  0  0  0  0  0  0  0
    1.8989    2.9037    1.5672 H   0  0  0  0  0  0  0  0  0  0  0  0
    1.7390    4.4594    0.0560 C   0  0  0  0  0  0  0  0  0  0  0  0
    1.8033    5.2758    0.7914 H   0  0  0  0  0  0  0  0  0  0  0  0
    1.5970    4.7509   -1.3086 C   0  0  0  0  0  0  0  0  0  0  0  0
    1.5616    5.7975   -1.6480 H   0  0  0  0  0  0  0  0  0  0  0  0
    1.4821    3.7037   -2.2396 C   0  0  0  0  0  0  0  0  0  0  0  0
    1.3494    3.9263   -3.3095 H   0  0  0  0  0  0  0  0  0  0  0  0
    1.5303    2.3713   -1.8111 C   0  0  0  0  0  0  0  0  0  0  0  0
    1.4164    1.5430   -2.5313 H   0  0  0  0  0  0  0  0  0  0  0  0
   -2.6717   -0.7620    1.3140 C   0  0  0  0  0  0  0  0  0  0  0  0
   -1.6758   -1.3913    2.1015 C   0  0  0  0  0  0  0  0  0  0  0  0
   -2.1061   -2.0748    3.2628 C   0  0  0  0  0  0  0  0  0  0  0  0
   -1.3729   -2.6152    3.8824 H   0  0  0  0  0  0  0  0  0  0  0  0
   -3.4628   -2.1228    3.6180 C   0  0  0  0  0  0  0  0  0  0  0  0
   -3.7717   -2.6738    4.5199 H   0  0  0  0  0  0  0  0  0  0  0  0
   -4.4306   -1.4930    2.8168 C   0  0  0  0  0  0  0  0  0  0  0  0
   -5.4953   -1.5421    3.0914 H   0  0  0  0  0  0  0  0  0  0  0  0
   -4.0355   -0.8134    1.6565 C   0  0  0  0  0  0  0  0  0  0  0  0
   -4.7862   -0.3334    1.0106 H   0  0  0  0  0  0  0  0  0  0  0  0
   -3.3060    0.0954   -1.4243 C   0  0  0  0  0  0  0  0  0  0  0  0
   -3.1892   -0.8151   -2.4942 C   0  0  0  0  0  0  0  0  0  0  0  0
   -2.2753   -1.4254   -2.5897 H   0  0  0  0  0  0  0  0  0  0  0  0
   -4.2083   -0.8898   -3.4567 C   0  0  0  0  0  0  0  0  0  0  0  0
   -4.1107   -1.5952   -4.2959 H   0  0  0  0  0  0  0  0  0  0  0  0
   -5.3353   -0.0590   -3.3614 C   0  0  0  0  0  0  0  0  0  0  0  0
   -6.1302   -0.1185   -4.1208 H   0  0  0  0  0  0  0  0  0  0  0  0
   -5.4432    0.8623   -2.3054 C   0  0  0  0  0  0  0  0  0  0  0  0
   -6.3201    1.5242   -2.2366 H   0  0  0  0  0  0  0  0  0  0  0  0
   -4.4304    0.9450   -1.3392 C   0  0  0  0  0  0  0  0  0  0  0  0
   -4.5042    1.6803   -0.5230 H   0  0  0  0  0  0  0  0  0  0  0  0
   -1.8496    1.8462    0.3679 C   0  0  0  0  0  0  0  0  0  0  0  0
   -1.7731    2.2001    1.7297 C   0  0  0  0  0  0  0  0  0  0  0  0
   -1.8390    1.4213    2.5037 H   0  0  0  0  0  0  0  0  0  0  0  0
   -1.6233    3.5461    2.0982 C   0  0  0  0  0  0  0  0  0  0  0  0
   -1.5698    3.8138    3.1646 H   0  0  0  0  0  0  0  0  0  0  0  0
   -1.5525    4.5445    1.1156 C   0  0  0  0  0  0  0  0  0  0  0  0
   -1.4412    5.6000    1.4069 H   0  0  0  0  0  0  0  0  0  0  0  0
   -1.6117    4.1923   -0.2429 C   0  0  0  0  0  0  0  0  0  0  0  0
   -1.5369    4.9681   -1.0191 H   0  0  0  0  0  0  0  0  0  0  0  0
   -1.7481    2.8501   -0.6187 C   0  0  0  0  0  0  0  0  0  0  0  0
   -1.7818    2.5778   -1.6847 H   0  0  0  0  0  0  0  0  0  0  0  0
  1 15  1  0  0  0  0
  2 68  1  0  0  0  0
  2 47  1  0  0  0  0
  3 48  1  0  0  0  0
  3 16  1  0  0  0  0
  4  3  1  6  0  0  0
  5  6  1  0  0  0  0
  5  4  1  0  0  0  0
  7  5  1  0  0  0  0
  8  7  1  0  0  0  0
  9  7  2  0  0  0  0
  9 11  1  0  0  0  0
 10  9  1  0  0  0  0
 11 13  2  0  0  0  0
 12 11  1  0  0  0  0
 13  4  1  0  0  0  0
 13 14  1  0  0  0  0
 15 16  2  0  0  0  0
 15 23  1  0  0  0  0
 16 17  1  0  0  0  0
 17 18  1  0  0  0  0
 17 19  2  0  0  0  0
 19 20  1  0  0  0  0
 21 22  1  0  0  0  0
 21 19  1  0  0  0  0
 23 21  2  0  0  0  0
 24 23  1  0  0  0  0
 25 34  1  0  0  0  0
 25  1  1  0  0  0  0
 26 25  2  0  0  0  0
 27 26  1  0  0  0  0
 28 30  2  0  0  0  0
 28 26  1  0  0  0  0
 29 28  1  0  0  0  0
 30 32  1  0  0  0  0
 31 30  1  0  0  0  0
 32 33  1  0  0  0  0
 32 34  2  0  0  0  0
 34 35  1  0  0  0  0
 36  1  1  0  0  0  0
 36 37  1  0  0  0  0
 37 38  1  0  0  0  0
 39 37  2  0  0  0  0
 39 40  1  0  0  0  0
 41 39  1  0  0  0  0
 42 41  1  0  0  0  0
 43 45  1  0  0  0  0
 43 41  2  0  0  0  0
 44 43  1  0  0  0  0
 45 36  2  0  0  0  0
 46 45  1  0  0  0  0
 47 55  2  0  0  0  0
 47 48  1  0  0  0  0
 48 49  2  0  0  0  0
 49 51  1  0  0  0  0
 49 50  1  0  0  0  0
 51 52  1  0  0  0  0
 53 54  1  0  0  0  0
 53 51  2  0  0  0  0
 55 53  1  0  0  0  0
 56 55  1  0  0  0  0
 57 66  1  0  0  0  0
 57  2  1  0  0  0  0
 58 57  2  0  0  0  0
 59 58  1  0  0  0  0
 60 62  2  0  0  0  0
 60 58  1  0  0  0  0
 61 60  1  0  0  0  0
 62 64  1  0  0  0  0
 63 62  1  0  0  0  0
 64 65  1  0  0  0  0
 64 66  2  0  0  0  0
 66 67  1  0  0  0  0
 68 69  1  0  0  0  0
 69 71  2  0  0  0  0
 69 70  1  0  0  0  0
 71 72  1  0  0  0  0
 73 74  1  0  0  0  0
 73 71  1  0  0  0  0
 75 73  2  0  0  0  0
 76 75  1  0  0  0  0
 77 75  1  0  0  0  0
 77 68  2  0  0  0  0
 78 77  1  0  0  0  0
M  END
