1,2,7
q = -1.0

 67 71  0  0  0  0  0  0  0  0999 V2000
   -2.1257   -0.0397    0.2473 P   0  0  0  0  0  0  0  0  0  0  0  0
    2.1257   -0.0397   -0.2476 P   0  0  0  0  0  0  0  0  0  0  0  0
   -2.3625    1.6787    0.8831 C   0  0  0  0  0  0  0  0  0  0  0  0
   -3.3372    2.1147    0.5804 H   0  0  0  0  0  0  0  0  0  0  0  0
   -2.3893    1.5922    1.9923 H   0  0  0  0  0  0  0  0  0  0  0  0
   -1.1506    2.4508    0.4116 C   0  0  0  0  0  0  0  0  0  0  0  0
    0.0000    1.7100   -0.0001 C   0  0  0  0  0  3  0  0  0  0  0  0
    1.1507    2.4508   -0.4118 C   0  0  0  0  0  0  0  0  0  0  0  0
    1.1575    3.8661   -0.4162 C   0  0  0  0  0  0  0  0  0  0  0  0
    0.0001    4.5463    0.0001 C   0  0  0  0  0  0  0  0  0  0  0  0
    0.0001    5.6488    0.0001 H   0  0  0  0  0  0  0  0  0  0  0  0
   -1.1574    3.8661    0.4163 C   0  0  0  0  0  0  0  0  0  0  0  0
    2.3626    1.6787   -0.8833 C   0  0  0  0  0  0  0  0  0  0  0  0
    3.3373    2.1147   -0.5806 H   0  0  0  0  0  0  0  0  0  0  0  0
    2.3894    1.5922   -1.9925 H   0  0  0  0  0  0  0  0  0  0  0  0
    2.3733    4.6370   -0.8701 C   0  0  0  0  0  0  0  0  0  0  0  0
    3.2599    4.4253   -0.2339 H   0  0  0  0  0  0  0  0  0  0  0  0
    2.1934    5.7291   -0.8373 H   0  0  0  0  0  0  0  0  0  0  0  0
    2.6643    4.3730   -1.9089 H   0  0  0  0  0  0  0  0  0  0  0  0
   -2.3731    4.6370    0.8703 C   0  0  0  0  0  0  0  0  0  0  0  0
   -3.2597    4.4253    0.2341 H   0  0  0  0  0  0  0  0  0  0  0  0
   -2.1932    5.7290    0.8374 H   0  0  0  0  0  0  0  0  0  0  0  0
   -2.6640    4.3729    1.9091 H   0  0  0  0  0  0  0  0  0  0  0  0
   -3.1216   -1.1217    1.3376 C   0  0  0  0  0  0  0  0  0  0  0  0
   -2.4695   -1.9275    2.2914 C   0  0  0  0  0  0  0  0  0  0  0  0
   -1.3700   -1.9670    2.2980 H   0  0  0  0  0  0  0  0  0  0  0  0
   -3.2270   -2.7040    3.1817 C   0  0  0  0  0  0  0  0  0  0  0  0
   -2.7155   -3.3385    3.9215 H   0  0  0  0  0  0  0  0  0  0  0  0
   -4.6292   -2.6828    3.1218 C   0  0  0  0  0  0  0  0  0  0  0  0
   -5.2198   -3.2964    3.8193 H   0  0  0  0  0  0  0  0  0  0  0  0
   -5.2807   -1.8873    2.1640 C   0  0  0  0  0  0  0  0  0  0  0  0
   -6.3801   -1.8762    2.1098 H   0  0  0  0  0  0  0  0  0  0  0  0
   -4.5303   -1.1100    1.2703 C   0  0  0  0  0  0  0  0  0  0  0  0
   -5.0392   -0.4968    0.5099 H   0  0  0  0  0  0  0  0  0  0  0  0
   -2.9571   -0.1353   -1.3797 C   0  0  0  0  0  0  0  0  0  0  0  0
   -3.0619   -1.4101   -1.9791 C   0  0  0  0  0  0  0  0  0  0  0  0
   -2.6678   -2.2914   -1.4483 H   0  0  0  0  0  0  0  0  0  0  0  0
   -3.6358   -1.5399   -3.2502 C   0  0  0  0  0  0  0  0  0  0  0  0
   -3.7192   -2.5361   -3.7108 H   0  0  0  0  0  0  0  0  0  0  0  0
   -4.0942   -0.4038   -3.9395 C   0  0  0  0  0  0  0  0  0  0  0  0
   -4.5430   -0.5086   -4.9390 H   0  0  0  0  0  0  0  0  0  0  0  0
   -3.9685    0.8661   -3.3556 C   0  0  0  0  0  0  0  0  0  0  0  0
   -4.3139    1.7600   -3.8970 H   0  0  0  0  0  0  0  0  0  0  0  0
   -3.3983    1.0042   -2.0800 C   0  0  0  0  0  0  0  0  0  0  0  0
   -3.2856    2.0062   -1.6399 H   0  0  0  0  0  0  0  0  0  0  0  0
    2.9566   -0.1352    1.3797 C   0  0  0  0  0  0  0  0  0  0  0  0
    3.3981    1.0043    2.0800 C   0  0  0  0  0  0  0  0  0  0  0  0
    3.2859    2.0062    1.6396 H   0  0  0  0  0  0  0  0  0  0  0  0
    3.9678    0.8661    3.3557 C   0  0  0  0  0  0  0  0  0  0  0  0
    4.3135    1.7600    3.8971 H   0  0  0  0  0  0  0  0  0  0  0  0
    4.0930   -0.4037    3.9398 C   0  0  0  0  0  0  0  0  0  0  0  0
    4.5414   -0.5085    4.9395 H   0  0  0  0  0  0  0  0  0  0  0  0
    3.6344   -1.5397    3.2506 C   0  0  0  0  0  0  0  0  0  0  0  0
    3.7173   -2.5359    3.7114 H   0  0  0  0  0  0  0  0  0  0  0  0
    3.0608   -1.4100    1.9794 C   0  0  0  0  0  0  0  0  0  0  0  0
    2.6666   -2.2912    1.4486 H   0  0  0  0  0  0  0  0  0  0  0  0
    3.1221   -1.1217   -1.3375 C   0  0  0  0  0  0  0  0  0  0  0  0
    4.5307   -1.1101   -1.2696 C   0  0  0  0  0  0  0  0  0  0  0  0
    5.0393   -0.4969   -0.5090 H   0  0  0  0  0  0  0  0  0  0  0  0
    5.2814   -1.8874   -2.1630 C   0  0  0  0  0  0  0  0  0  0  0  0
    6.3808   -1.8763   -2.1084 H   0  0  0  0  0  0  0  0  0  0  0  0
    4.6303   -2.6828   -3.1211 C   0  0  0  0  0  0  0  0  0  0  0  0
    5.2212   -3.2964   -3.8185 H   0  0  0  0  0  0  0  0  0  0  0  0
    3.2281   -2.7038   -3.1817 C   0  0  0  0  0  0  0  0  0  0  0  0
    2.7169   -3.3383   -3.9217 H   0  0  0  0  0  0  0  0  0  0  0  0
    2.4703   -1.9273   -2.2916 C   0  0  0  0  0  0  0  0  0  0  0  0
    1.3708   -1.9669   -2.2987 H   0  0  0  0  0  0  0  0  0  0  0  0
  1  3  1  0  0  0  0
  1 24  1  0  0  0  0
  2 46  1  0  0  0  0
  3  5  1  0  0  0  0
  4  3  1  0  0  0  0
  6 12  1  0  0  0  0
  6  3  1  0  0  0  0
  7  6  2  0  0  0  0
  8  7  1  0  0  0  0
  9  8  2  0  0  0  0
  9 10  1  0  0  0  0
 10 11  1  0  0  0  0
 10 12  2  0  0  0  0
 12 20  1  0  0  0  0
 13 14  1  0  0  0  0
 13  8  1  0  0  0  0
 13  2  1  0  0  0  0
 15 13  1  0  0  0  0
 16 18  1  0  0  0  0
 16  9  1  0  0  0  0
 16 17  1  0  0  0  0
 19 16  1  0  0  0  0
 20 23  1  0  0  0  0
 21 20  1  0  0  0  0
 22 20  1  0  0  0  0
 24 25  1  0  0  0  0
 25 26  1  0  0  0  0
 25 27  2  0  0  0  0
 27 28  1  0  0  0  0
 29 27  1  0  0  0  0
 29 30  1  0  0  0  0
 31 29  2  0  0  0  0
 32 31  1  0  0  0  0
 33 24  2  0  0  0  0
 33 31  1  0  0  0  0
 34 33  1  0  0  0  0
 35  1  1  0  0  0  0
 36 37  1  0  0  0  0
 36 35  1  0  0  0  0
 38 36  2  0  0  0  0
 39 38  1  0  0  0  0
 40 42  2  0  0  0  0
 40 38  1  0  0  0  0
 41 40  1  0  0  0  0
 42 44  1  0  0  0  0
 43 42  1  0  0  0  0
 44 45  1  0  0  0  0
 44 35  2  0  0  0  0
 46 55  2  0  0  0  0
 46 47  1  0  0  0  0
 47 49  2  0  0  0  0
 48 47  1  0  0  0  0
 49 50  1  0  0  0  0
 49 51  1  0  0  0  0
 51 52  1  0  0  0  0
 53 54  1  0  0  0  0
 53 51  2  0  0  0  0
 55 53  1  0  0  0  0
 56 55  1  0  0  0  0
 57 58  1  0  0  0  0
 57  2  1  0  0  0  0
 58 59  1  0  0  0  0
 60 61  1  0  0  0  0
 60 58  2  0  0  0  0
 62 60  1  0  0  0  0
 63 62  1  0  0  0  0
 64 62  2  0  0  0  0
 64 66  1  0  0  0  0
 65 64  1  0  0  0  0
 66 57  2  0  0  0  0
 67 66  1  0  0  0  0
M  END
