1,2,8
q = -1.0

 52 51  0  0  0  0  0  0  0  0999 V2000
    2.1241   -0.0217    0.1431 P   0  0  0  0  0  0  0  0  0  0  0  0
   -2.1240   -0.0215    0.1432 P   0  0  0  0  0  0  0  0  0  0  0  0
    2.4517   -0.5749    1.7006 O   0  0  0  0  0  0  0  0  0  0  0  0
   -2.4516   -0.5736    1.7011 O   0  0  0  0  0  0  0  0  0  0  0  0
    1.2671   -1.0799    2.3390 C   0  0  0  0  0  0  0  0  0  0  0  0
    1.4450   -0.9730    3.4332 H   0  0  0  0  0  0  0  0  0  0  0  0
    1.1669   -2.1708    2.1270 H   0  0  0  0  0  0  0  0  0  0  0  0
    0.0001   -0.3433    1.8861 C   0  0  0  0  0  3  0  0  0  0  0  0
    0.0005    0.6802    2.3333 H   0  0  0  0  0  0  0  0  0  0  0  0
   -1.2672   -1.0791    2.3394 C   0  0  0  0  0  0  0  0  0  0  0  0
   -1.1676   -2.1701    2.1276 H   0  0  0  0  0  0  0  0  0  0  0  0
   -1.4449   -0.9719    3.4336 H   0  0  0  0  0  0  0  0  0  0  0  0
    3.0846   -1.1634   -0.9627 C   0  0  0  0  0  0  0  0  0  0  0  0
    2.9656   -0.6975   -1.9661 H   0  0  0  0  0  0  0  0  0  0  0  0
    3.0297    1.6002    0.1353 C   0  0  0  0  0  0  0  0  0  0  0  0
    4.0466    1.3752    0.5270 H   0  0  0  0  0  0  0  0  0  0  0  0
   -3.0296    1.6004    0.1344 C   0  0  0  0  0  0  0  0  0  0  0  0
   -4.0464    1.3756    0.5267 H   0  0  0  0  0  0  0  0  0  0  0  0
   -3.0845   -1.1640   -0.9618 C   0  0  0  0  0  0  0  0  0  0  0  0
   -2.9651   -0.6990   -1.9656 H   0  0  0  0  0  0  0  0  0  0  0  0
    4.5624   -1.2612   -0.5752 C   0  0  0  0  0  0  0  0  0  0  0  0
    4.6663   -1.5949    0.4775 H   0  0  0  0  0  0  0  0  0  0  0  0
    5.0927   -0.2940   -0.6818 H   0  0  0  0  0  0  0  0  0  0  0  0
    5.0827   -1.9989   -1.2210 H   0  0  0  0  0  0  0  0  0  0  0  0
    2.3809   -2.5264   -0.9844 C   0  0  0  0  0  0  0  0  0  0  0  0
    2.8953   -3.2175   -1.6836 H   0  0  0  0  0  0  0  0  0  0  0  0
    1.3290   -2.4163   -1.3155 H   0  0  0  0  0  0  0  0  0  0  0  0
    2.3871   -2.9972    0.0206 H   0  0  0  0  0  0  0  0  0  0  0  0
    3.1182    2.1662   -1.2876 C   0  0  0  0  0  0  0  0  0  0  0  0
    2.1119    2.2263   -1.7514 H   0  0  0  0  0  0  0  0  0  0  0  0
    3.7533    1.5426   -1.9478 H   0  0  0  0  0  0  0  0  0  0  0  0
    3.5584    3.1845   -1.2643 H   0  0  0  0  0  0  0  0  0  0  0  0
    2.3257    2.5575    1.1045 C   0  0  0  0  0  0  0  0  0  0  0  0
    2.8859    3.5120    1.1809 H   0  0  0  0  0  0  0  0  0  0  0  0
    2.2491    2.1191    2.1188 H   0  0  0  0  0  0  0  0  0  0  0  0
    1.2992    2.7890    0.7510 H   0  0  0  0  0  0  0  0  0  0  0  0
   -2.3252    2.5584    1.1026 C   0  0  0  0  0  0  0  0  0  0  0  0
   -1.2990    2.7897    0.7485 H   0  0  0  0  0  0  0  0  0  0  0  0
   -2.2481    2.1207    2.1172 H   0  0  0  0  0  0  0  0  0  0  0  0
   -2.8855    3.5129    1.1786 H   0  0  0  0  0  0  0  0  0  0  0  0
   -3.1187    2.1653   -1.2889 C   0  0  0  0  0  0  0  0  0  0  0  0
   -3.5590    3.1836   -1.2661 H   0  0  0  0  0  0  0  0  0  0  0  0
   -3.7539    1.5412   -1.9484 H   0  0  0  0  0  0  0  0  0  0  0  0
   -2.1125    2.2252   -1.7530 H   0  0  0  0  0  0  0  0  0  0  0  0
   -2.3812   -2.5272   -0.9821 C   0  0  0  0  0  0  0  0  0  0  0  0
   -2.3882   -2.9972    0.0232 H   0  0  0  0  0  0  0  0  0  0  0  0
   -1.3291   -2.4177   -1.3126 H   0  0  0  0  0  0  0  0  0  0  0  0
   -2.8954   -3.2186   -1.6811 H   0  0  0  0  0  0  0  0  0  0  0  0
   -4.5625   -1.2611   -0.5747 C   0  0  0  0  0  0  0  0  0  0  0  0
   -5.0827   -1.9992   -1.2199 H   0  0  0  0  0  0  0  0  0  0  0  0
   -5.0925   -0.2938   -0.6823 H   0  0  0  0  0  0  0  0  0  0  0  0
   -4.6668   -1.5938    0.4783 H   0  0  0  0  0  0  0  0  0  0  0  0
  1  3  1  0  0  0  0
  2  4  1  0  0  0  0
  3  5  1  0  0  0  0
  4 10  1  0  0  0  0
  5  6  1  0  0  0  0
  7  5  1  0  0  0  0
  8  9  1  0  0  0  0
  8  5  1  0  0  0  0
  8 10  1  0  0  0  0
 10 12  1  0  0  0  0
 11 10  1  0  0  0  0
 13 21  1  0  0  0  0
 13  1  1  0  0  0  0
 14 13  1  0  0  0  0
 15  1  1  0  0  0  0
 15 16  1  0  0  0  0
 15 33  1  0  0  0  0
 17  2  1  0  0  0  0
 17 18  1  0  0  0  0
 17 37  1  0  0  0  0
 19 49  1  0  0  0  0
 19  2  1  0  0  0  0
 20 19  1  0  0  0  0
 21 22  1  0  0  0  0
 23 21  1  0  0  0  0
 24 21  1  0  0  0  0
 25 13  1  0  0  0  0
 25 28  1  0  0  0  0
 26 25  1  0  0  0  0
 27 25  1  0  0  0  0
 29 32  1  0  0  0  0
 29 15  1  0  0  0  0
 30 29  1  0  0  0  0
 31 29  1  0  0  0  0
 33 34  1  0  0  0  0
 33 35  1  0  0  0  0
 36 33  1  0  0  0  0
 37 40  1  0  0  0  0
 37 39  1  0  0  0  0
 38 37  1  0  0  0  0
 41 42  1  0  0  0  0
 41 17  1  0  0  0  0
 43 41  1  0  0  0  0
 44 41  1  0  0  0  0
 45 19  1  0  0  0  0
 45 46  1  0  0  0  0
 47 45  1  0  0  0  0
 48 45  1  0  0  0  0
 49 52  1  0  0  0  0
 50 49  1  0  0  0  0
 51 49  1  0  0  0  0
M  END
