2,3,5
q = -1.0

 73 75  0  0  0  0  0  0  0  0999 V2000
   -2.0249   -0.7030    1.7758 O   0  0  0  0  0  0  0  0  0  0  0  0
    2.6310    0.1098   -0.2503 P   0  0  0  0  0  0  0  0  0  0  0  0
   -1.9348    0.0169    0.2443 P   0  0  0  0  0  0  0  0  0  0  0  0
    3.2221   -0.7944    1.6073 S   0  0  0  0  0  0  0  0  0  0  0  0
    0.4088   -0.7630    1.6337 C   0  0  0  0  0  3  0  0  0  0  0  0
    1.6061   -1.1552    2.2895 C   0  0  0  0  0  0  0  0  0  0  0  0
    1.5971   -1.8524    3.5162 C   0  0  0  0  0  0  0  0  0  0  0  0
    2.5461   -2.1518    3.9854 H   0  0  0  0  0  0  0  0  0  0  0  0
    0.3762   -2.1573    4.1324 C   0  0  0  0  0  0  0  0  0  0  0  0
    0.3675   -2.6997    5.0896 H   0  0  0  0  0  0  0  0  0  0  0  0
   -0.8336   -1.7716    3.5360 C   0  0  0  0  0  0  0  0  0  0  0  0
   -1.8053   -1.9920    4.0000 H   0  0  0  0  0  0  0  0  0  0  0  0
   -0.8013   -1.0825    2.3160 C   0  0  0  0  0  0  0  0  0  0  0  0
    3.3283   -1.1255   -1.5356 C   0  0  0  0  0  0  0  0  0  0  0  0
    2.3138   -2.2872   -1.5019 C   0  0  0  0  0  0  0  0  0  0  0  0
    2.6685   -3.1006   -2.1697 H   0  0  0  0  0  0  0  0  0  0  0  0
    1.3191   -1.9586   -1.8666 H   0  0  0  0  0  0  0  0  0  0  0  0
    2.2009   -2.7046   -0.4808 H   0  0  0  0  0  0  0  0  0  0  0  0
    4.7241   -1.6572   -1.1794 C   0  0  0  0  0  0  0  0  0  0  0  0
    4.7380   -2.1250   -0.1753 H   0  0  0  0  0  0  0  0  0  0  0  0
    5.5003   -0.8700   -1.2114 H   0  0  0  0  0  0  0  0  0  0  0  0
    5.0082   -2.4339   -1.9211 H   0  0  0  0  0  0  0  0  0  0  0  0
    3.3289   -0.4823   -2.9323 C   0  0  0  0  0  0  0  0  0  0  0  0
    3.5127   -1.2765   -3.6872 H   0  0  0  0  0  0  0  0  0  0  0  0
    4.1385    0.2654   -3.0420 H   0  0  0  0  0  0  0  0  0  0  0  0
    2.3554   -0.0052   -3.1671 H   0  0  0  0  0  0  0  0  0  0  0  0
    3.5329    1.7895   -0.2402 C   0  0  0  0  0  0  0  0  0  0  0  0
    3.0220    2.5395    1.0043 C   0  0  0  0  0  0  0  0  0  0  0  0
    3.5299    3.5252    1.0607 H   0  0  0  0  0  0  0  0  0  0  0  0
    3.2316    1.9806    1.9373 H   0  0  0  0  0  0  0  0  0  0  0  0
    1.9307    2.7209    0.9438 H   0  0  0  0  0  0  0  0  0  0  0  0
    5.0579    1.6370   -0.1600 C   0  0  0  0  0  0  0  0  0  0  0  0
    5.4799    1.1842   -1.0775 H   0  0  0  0  0  0  0  0  0  0  0  0
    5.3652    1.0245    0.7121 H   0  0  0  0  0  0  0  0  0  0  0  0
    5.5203    2.6403   -0.0436 H   0  0  0  0  0  0  0  0  0  0  0  0
    3.1125    2.5696   -1.5009 C   0  0  0  0  0  0  0  0  0  0  0  0
    3.4403    3.6252   -1.3933 H   0  0  0  0  0  0  0  0  0  0  0  0
    2.0134    2.5553   -1.6460 H   0  0  0  0  0  0  0  0  0  0  0  0
    3.5770    2.1683   -2.4198 H   0  0  0  0  0  0  0  0  0  0  0  0
   -3.0067    1.5012    0.4576 C   0  0  0  0  0  0  0  0  0  0  0  0
   -3.9695    1.1319    0.8789 H   0  0  0  0  0  0  0  0  0  0  0  0
   -3.2619    2.1752   -0.9057 C   0  0  0  0  0  0  0  0  0  0  0  0
   -3.7851    1.4776   -1.5923 H   0  0  0  0  0  0  0  0  0  0  0  0
   -2.2843    2.3991   -1.3871 H   0  0  0  0  0  0  0  0  0  0  0  0
   -4.0837    3.4618   -0.7425 C   0  0  0  0  0  0  0  0  0  0  0  0
   -4.2104    3.9510   -1.7307 H   0  0  0  0  0  0  0  0  0  0  0  0
   -5.1066    3.1984   -0.3896 H   0  0  0  0  0  0  0  0  0  0  0  0
   -3.4411    4.4282    0.2600 C   0  0  0  0  0  0  0  0  0  0  0  0
   -2.4625    4.7737   -0.1427 H   0  0  0  0  0  0  0  0  0  0  0  0
   -4.0695    5.3354    0.3797 H   0  0  0  0  0  0  0  0  0  0  0  0
   -3.2134    3.7484    1.6159 C   0  0  0  0  0  0  0  0  0  0  0  0
   -2.7191    4.4446    2.3253 H   0  0  0  0  0  0  0  0  0  0  0  0
   -4.1970    3.4874    2.0677 H   0  0  0  0  0  0  0  0  0  0  0  0
   -2.3704    2.4761    1.4655 C   0  0  0  0  0  0  0  0  0  0  0  0
   -2.2316    1.9705    2.4428 H   0  0  0  0  0  0  0  0  0  0  0  0
   -1.3552    2.7478    1.0999 H   0  0  0  0  0  0  0  0  0  0  0  0
   -2.8431   -1.1825   -0.8267 C   0  0  0  0  0  0  0  0  0  0  0  0
   -2.7800   -0.7160   -1.8377 H   0  0  0  0  0  0  0  0  0  0  0  0
   -2.0578   -2.5095   -0.8604 C   0  0  0  0  0  0  0  0  0  0  0  0
   -1.0139   -2.3224   -1.1892 H   0  0  0  0  0  0  0  0  0  0  0  0
   -1.9928   -2.9154    0.1729 H   0  0  0  0  0  0  0  0  0  0  0  0
   -2.7377   -3.5351   -1.7755 C   0  0  0  0  0  0  0  0  0  0  0  0
   -2.1712   -4.4895   -1.7566 H   0  0  0  0  0  0  0  0  0  0  0  0
   -2.6998   -3.1670   -2.8252 H   0  0  0  0  0  0  0  0  0  0  0  0
   -4.1983   -3.7660   -1.3690 C   0  0  0  0  0  0  0  0  0  0  0  0
   -4.6843   -4.4886   -2.0573 H   0  0  0  0  0  0  0  0  0  0  0  0
   -4.2263   -4.2287   -0.3568 H   0  0  0  0  0  0  0  0  0  0  0  0
   -4.9807   -2.4474   -1.3408 C   0  0  0  0  0  0  0  0  0  0  0  0
   -5.0421   -2.0369   -2.3738 H   0  0  0  0  0  0  0  0  0  0  0  0
   -6.0263   -2.6196   -1.0098 H   0  0  0  0  0  0  0  0  0  0  0  0
   -4.3119   -1.4060   -0.4306 C   0  0  0  0  0  0  0  0  0  0  0  0
   -4.8784   -0.4526   -0.4713 H   0  0  0  0  0  0  0  0  0  0  0  0
   -4.3443   -1.7533    0.6256 H   0  0  0  0  0  0  0  0  0  0  0  0
  1 13  1  0  0  0  0
  2 27  1  0  0  0  0
  2  4  1  0  0  0  0
  3 40  1  0  0  0  0
  3  1  1  0  0  0  0
  4  6  1  0  0  0  0
  5  6  2  0  0  0  0
  5 13  1  0  0  0  0
  6  7  1  0  0  0  0
  7  8  1  0  0  0  0
  7  9  2  0  0  0  0
  9 10  1  0  0  0  0
 11 12  1  0  0  0  0
 11  9  1  0  0  0  0
 13 11  2  0  0  0  0
 14 15  1  0  0  0  0
 14 19  1  0  0  0  0
 14  2  1  0  0  0  0
 15 18  1  0  0  0  0
 16 15  1  0  0  0  0
 17 15  1  0  0  0  0
 19 20  1  0  0  0  0
 21 19  1  0  0  0  0
 22 19  1  0  0  0  0
 23 14  1  0  0  0  0
 24 23  1  0  0  0  0
 25 23  1  0  0  0  0
 26 23  1  0  0  0  0
 27 32  1  0  0  0  0
 27 28  1  0  0  0  0
 28 29  1  0  0  0  0
 28 30  1  0  0  0  0
 31 28  1  0  0  0  0
 32 35  1  0  0  0  0
 32 34  1  0  0  0  0
 33 32  1  0  0  0  0
 36 37  1  0  0  0  0
 36 27  1  0  0  0  0
 38 36  1  0  0  0  0
 39 36  1  0  0  0  0
 40 41  1  0  0  0  0
 40 54  1  0  0  0  0
 42 45  1  0  0  0  0
 42 40  1  0  0  0  0
 43 42  1  0  0  0  0
 44 42  1  0  0  0  0
 45 47  1  0  0  0  0
 45 48  1  0  0  0  0
 46 45  1  0  0  0  0
 48 50  1  0  0  0  0
 48 51  1  0  0  0  0
 49 48  1  0  0  0  0
 51 53  1  0  0  0  0
 51 52  1  0  0  0  0
 54 51  1  0  0  0  0
 54 55  1  0  0  0  0
 56 54  1  0  0  0  0
 57 71  1  0  0  0  0
 57  3  1  0  0  0  0
 58 57  1  0  0  0  0
 59 57  1  0  0  0  0
 59 61  1  0  0  0  0
 60 59  1  0  0  0  0
 62 63  1  0  0  0  0
 62 65  1  0  0  0  0
 62 59  1  0  0  0  0
 64 62  1  0  0  0  0
 65 68  1  0  0  0  0
 65 67  1  0  0  0  0
 66 65  1  0  0  0  0
 68 70  1  0  0  0  0
 68 71  1  0  0  0  0
 69 68  1  0  0  0  0
 71 73  1  0  0  0  0
 72 71  1  0  0  0  0
M  END
