1,2,4
q = -1.0

 61 61  0  0  0  0  0  0  0  0999 V2000
   -2.0979    0.0405   -0.0686 P   0  0  0  0  0  0  0  0  0  0  0  0
    2.4238   -0.2742    0.0224 P   0  0  0  0  0  0  0  0  0  0  0  0
    2.7402    1.3940   -0.0899 O   0  0  0  0  0  0  0  0  0  0  0  0
    0.3343    1.5565   -0.3905 C   0  0  0  0  0  3  0  0  0  0  0  0
   -0.7830    2.3868   -0.6675 C   0  0  0  0  0  0  0  0  0  0  0  0
   -0.6153    3.7796   -0.8169 C   0  0  0  0  0  0  0  0  0  0  0  0
    0.6603    4.3541   -0.7145 C   0  0  0  0  0  0  0  0  0  0  0  0
    1.7862    3.5510   -0.4724 C   0  0  0  0  0  0  0  0  0  0  0  0
    1.6133    2.1673   -0.3179 C   0  0  0  0  0  0  0  0  0  0  0  0
   -2.1384    1.7381   -0.8414 C   0  0  0  0  0  0  0  0  0  0  0  0
   -2.7791    0.2658    1.6925 C   0  0  0  0  0  0  0  0  0  0  0  0
   -2.5131   -1.0206    2.4968 C   0  0  0  0  0  0  0  0  0  0  0  0
   -4.2718    0.6253    1.7159 C   0  0  0  0  0  0  0  0  0  0  0  0
   -1.9561    1.4115    2.3170 C   0  0  0  0  0  0  0  0  0  0  0  0
   -3.1861   -1.0464   -1.1815 C   0  0  0  0  0  0  0  0  0  0  0  0
   -3.5052   -2.3694   -0.4645 C   0  0  0  0  0  0  0  0  0  0  0  0
   -2.2944   -1.3506   -2.4043 C   0  0  0  0  0  0  0  0  0  0  0  0
   -4.4776   -0.3438   -1.6315 C   0  0  0  0  0  0  0  0  0  0  0  0
    3.2683   -0.7178    1.6089 C   0  0  0  0  0  0  0  0  0  0  0  0
    4.7518   -0.3349    1.6250 C   0  0  0  0  0  0  0  0  0  0  0  0
    2.4765   -0.0970    2.7682 C   0  0  0  0  0  0  0  0  0  0  0  0
    3.4311   -0.9559   -1.3744 C   0  0  0  0  0  0  0  0  0  0  0  0
    3.5043   -2.4850   -1.2610 C   0  0  0  0  0  0  0  0  0  0  0  0
    2.8022   -0.4934   -2.6952 C   0  0  0  0  0  0  0  0  0  0  0  0
   -1.4900    4.4167   -1.0214 H   0  0  0  0  0  0  0  0  0  0  0  0
    0.7849    5.4414   -0.8302 H   0  0  0  0  0  0  0  0  0  0  0  0
    2.7960    3.9801   -0.4001 H   0  0  0  0  0  0  0  0  0  0  0  0
   -2.3402    1.5811   -1.9233 H   0  0  0  0  0  0  0  0  0  0  0  0
   -2.9743    2.3589   -0.4563 H   0  0  0  0  0  0  0  0  0  0  0  0
   -2.7245   -0.8261    3.5697 H   0  0  0  0  0  0  0  0  0  0  0  0
   -3.1552   -1.8607    2.1751 H   0  0  0  0  0  0  0  0  0  0  0  0
   -1.4606   -1.3530    2.3946 H   0  0  0  0  0  0  0  0  0  0  0  0
   -4.4986    1.5255    1.1089 H   0  0  0  0  0  0  0  0  0  0  0  0
   -4.9068   -0.2078    1.3571 H   0  0  0  0  0  0  0  0  0  0  0  0
   -4.5785    0.8471    2.7604 H   0  0  0  0  0  0  0  0  0  0  0  0
   -2.2590    1.5278    3.3790 H   0  0  0  0  0  0  0  0  0  0  0  0
   -0.8698    1.1939    2.2857 H   0  0  0  0  0  0  0  0  0  0  0  0
   -2.1182    2.3833    1.8112 H   0  0  0  0  0  0  0  0  0  0  0  0
   -4.2278   -2.2309    0.3635 H   0  0  0  0  0  0  0  0  0  0  0  0
   -3.9686   -3.0689   -1.1924 H   0  0  0  0  0  0  0  0  0  0  0  0
   -2.5828   -2.8430   -0.0701 H   0  0  0  0  0  0  0  0  0  0  0  0
   -1.3944   -1.9202   -2.0975 H   0  0  0  0  0  0  0  0  0  0  0  0
   -2.8702   -1.9599   -3.1331 H   0  0  0  0  0  0  0  0  0  0  0  0
   -1.9617   -0.4295   -2.9260 H   0  0  0  0  0  0  0  0  0  0  0  0
   -4.2771    0.5883   -2.1964 H   0  0  0  0  0  0  0  0  0  0  0  0
   -5.0387   -1.0217   -2.3098 H   0  0  0  0  0  0  0  0  0  0  0  0
   -5.1443   -0.0970   -0.7842 H   0  0  0  0  0  0  0  0  0  0  0  0
    3.1496   -1.8238    1.6515 H   0  0  0  0  0  0  0  0  0  0  0  0
    5.2003   -0.5913    2.6069 H   0  0  0  0  0  0  0  0  0  0  0  0
    5.3338   -0.8646    0.8450 H   0  0  0  0  0  0  0  0  0  0  0  0
    4.8761    0.7556    1.4683 H   0  0  0  0  0  0  0  0  0  0  0  0
    2.4849    1.0105    2.7066 H   0  0  0  0  0  0  0  0  0  0  0  0
    1.4212   -0.4355    2.7542 H   0  0  0  0  0  0  0  0  0  0  0  0
    2.9257   -0.3904    3.7389 H   0  0  0  0  0  0  0  0  0  0  0  0
    4.4435   -0.5064   -1.2719 H   0  0  0  0  0  0  0  0  0  0  0  0
    2.4874   -2.9242   -1.1844 H   0  0  0  0  0  0  0  0  0  0  0  0
    4.0023   -2.9049   -2.1590 H   0  0  0  0  0  0  0  0  0  0  0  0
    4.0815   -2.8134   -0.3737 H   0  0  0  0  0  0  0  0  0  0  0  0
    2.7200    0.6102   -2.7472 H   0  0  0  0  0  0  0  0  0  0  0  0
    3.4206   -0.8347   -3.5506 H   0  0  0  0  0  0  0  0  0  0  0  0
    1.7836   -0.9174   -2.8114 H   0  0  0  0  0  0  0  0  0  0  0  0
  1 11  1  0  0  0  0
  2 19  1  0  0  0  0
  3  2  1  0  0  0  0
  4  9  1  0  0  0  0
  5  4  2  0  0  0  0
  6  7  2  0  0  0  0
  6  5  1  0  0  0  0
  7  8  1  0  0  0  0
  8 27  1  0  0  0  0
  8  9  2  0  0  0  0
  9  3  1  0  0  0  0
 10  5  1  0  0  0  0
 10 29  1  0  0  0  0
 10  1  1  0  0  0  0
 11 13  1  0  0  0  0
 11 14  1  0  0  0  0
 11 12  1  0  0  0  0
 12 30  1  0  0  0  0
 13 35  1  0  0  0  0
 14 36  1  0  0  0  0
 15 16  1  0  0  0  0
 15  1  1  0  0  0  0
 16 41  1  0  0  0  0
 16 39  1  0  0  0  0
 17 42  1  0  0  0  0
 17 15  1  0  0  0  0
 18 15  1  0  0  0  0
 18 47  1  0  0  0  0
 19 20  1  0  0  0  0
 19 48  1  0  0  0  0
 19 21  1  0  0  0  0
 20 49  1  0  0  0  0
 21 54  1  0  0  0  0
 22 55  1  0  0  0  0
 22 23  1  0  0  0  0
 22  2  1  0  0  0  0
 23 56  1  0  0  0  0
 23 58  1  0  0  0  0
 24 22  1  0  0  0  0
 25  6  1  0  0  0  0
 26  7  1  0  0  0  0
 28 10  1  0  0  0  0
 31 12  1  0  0  0  0
 32 12  1  0  0  0  0
 33 13  1  0  0  0  0
 34 13  1  0  0  0  0
 37 14  1  0  0  0  0
 38 14  1  0  0  0  0
 40 16  1  0  0  0  0
 43 17  1  0  0  0  0
 44 17  1  0  0  0  0
 45 18  1  0  0  0  0
 46 18  1  0  0  0  0
 50 20  1  0  0  0  0
 51 20  1  0  0  0  0
 52 21  1  0  0  0  0
 53 21  1  0  0  0  0
 57 23  1  0  0  0  0
 59 24  1  0  0  0  0
 60 24  1  0  0  0  0
 61 24  1  0  0  0  0
M  END
