1,2,4
q = -1.0

 64 64  0  0  0  0  0  0  0  0999 V2000
   -2.1097   -0.1816   -0.0716 P   0  0  0  0  0  0  0  0  0  0  0  0
    2.4747   -0.2332   -0.0286 P   0  0  0  0  0  0  0  0  0  0  0  0
    3.1483    1.2789    0.2040 O   0  0  0  0  0  0  0  0  0  0  0  0
    0.0732    1.7443   -0.1667 C   0  0  0  0  0  3  0  0  0  0  0  0
   -1.1108    2.2783   -0.7567 C   0  0  0  0  0  0  0  0  0  0  0  0
   -1.2398    3.6606   -1.0000 C   0  0  0  0  0  0  0  0  0  0  0  0
   -0.2075    4.5454   -0.6682 C   0  0  0  0  0  0  0  0  0  0  0  0
    0.9514    4.0406   -0.0652 C   0  0  0  0  0  0  0  0  0  0  0  0
    1.0940    2.6635    0.1980 C   0  0  0  0  0  0  0  0  0  0  0  0
   -2.2603    1.3587   -1.0992 C   0  0  0  0  0  0  0  0  0  0  0  0
   -2.9270   -1.5309   -1.1379 C   0  0  0  0  0  0  0  0  0  0  0  0
   -3.1780   -2.7977   -0.3026 C   0  0  0  0  0  0  0  0  0  0  0  0
   -1.8926   -1.8587   -2.2353 C   0  0  0  0  0  0  0  0  0  0  0  0
   -4.2341   -1.0464   -1.7901 C   0  0  0  0  0  0  0  0  0  0  0  0
   -3.0316    0.1444    1.5585 C   0  0  0  0  0  0  0  0  0  0  0  0
   -2.6444   -0.9710    2.5491 C   0  0  0  0  0  0  0  0  0  0  0  0
   -4.5563    0.2285    1.3965 C   0  0  0  0  0  0  0  0  0  0  0  0
   -2.4978    1.4851    2.1006 C   0  0  0  0  0  0  0  0  0  0  0  0
    2.3365    2.2176    0.9374 C   0  0  0  0  0  0  0  0  0  0  0  0
    3.0555   -0.5885   -1.7559 C   0  0  0  0  0  0  0  0  0  0  0  0
    2.2888    0.3085   -2.7359 C   0  0  0  0  0  0  0  0  0  0  0  0
    2.9149   -2.0787   -2.0901 C   0  0  0  0  0  0  0  0  0  0  0  0
    3.4613   -1.3213    1.1105 C   0  0  0  0  0  0  0  0  0  0  0  0
    3.0524   -1.0320    2.5604 C   0  0  0  0  0  0  0  0  0  0  0  0
    4.9702   -1.1947    0.8838 C   0  0  0  0  0  0  0  0  0  0  0  0
   -2.1683    4.0450   -1.4525 H   0  0  0  0  0  0  0  0  0  0  0  0
   -0.3101    5.6230   -0.8662 H   0  0  0  0  0  0  0  0  0  0  0  0
    1.7641    4.7273    0.2229 H   0  0  0  0  0  0  0  0  0  0  0  0
   -2.1827    1.0187   -2.1548 H   0  0  0  0  0  0  0  0  0  0  0  0
   -3.2488    1.8535   -0.9977 H   0  0  0  0  0  0  0  0  0  0  0  0
   -3.5017   -3.6151   -0.9817 H   0  0  0  0  0  0  0  0  0  0  0  0
   -2.2518   -3.1241    0.2116 H   0  0  0  0  0  0  0  0  0  0  0  0
   -3.9835   -2.6541    0.4440 H   0  0  0  0  0  0  0  0  0  0  0  0
   -1.6244   -0.9701   -2.8434 H   0  0  0  0  0  0  0  0  0  0  0  0
   -0.9673   -2.2725   -1.7890 H   0  0  0  0  0  0  0  0  0  0  0  0
   -2.3257   -2.6141   -2.9251 H   0  0  0  0  0  0  0  0  0  0  0  0
   -4.0789   -0.1672   -2.4461 H   0  0  0  0  0  0  0  0  0  0  0  0
   -4.6365   -1.8617   -2.4286 H   0  0  0  0  0  0  0  0  0  0  0  0
   -5.0140   -0.7917   -1.0489 H   0  0  0  0  0  0  0  0  0  0  0  0
   -3.0435   -0.7186    3.5544 H   0  0  0  0  0  0  0  0  0  0  0  0
   -3.0535   -1.9564    2.2605 H   0  0  0  0  0  0  0  0  0  0  0  0
   -1.5437   -1.0783    2.6218 H   0  0  0  0  0  0  0  0  0  0  0  0
   -4.8573    0.9935    0.6521 H   0  0  0  0  0  0  0  0  0  0  0  0
   -5.0019   -0.7413    1.1025 H   0  0  0  0  0  0  0  0  0  0  0  0
   -5.0108    0.5183    2.3680 H   0  0  0  0  0  0  0  0  0  0  0  0
   -2.9367    1.6600    3.1058 H   0  0  0  0  0  0  0  0  0  0  0  0
   -1.3943    1.4739    2.1985 H   0  0  0  0  0  0  0  0  0  0  0  0
   -2.7690    2.3455    1.4583 H   0  0  0  0  0  0  0  0  0  0  0  0
    2.0546    1.7789    1.9216 H   0  0  0  0  0  0  0  0  0  0  0  0
    2.9976    3.0845    1.1335 H   0  0  0  0  0  0  0  0  0  0  0  0
    4.1285   -0.2942   -1.7600 H   0  0  0  0  0  0  0  0  0  0  0  0
    2.3544    1.3766   -2.4503 H   0  0  0  0  0  0  0  0  0  0  0  0
    2.7012    0.1930   -3.7594 H   0  0  0  0  0  0  0  0  0  0  0  0
    1.2144    0.0325   -2.7580 H   0  0  0  0  0  0  0  0  0  0  0  0
    3.1602   -2.2493   -3.1585 H   0  0  0  0  0  0  0  0  0  0  0  0
    3.5930   -2.7117   -1.4843 H   0  0  0  0  0  0  0  0  0  0  0  0
    1.8804   -2.4330   -1.9046 H   0  0  0  0  0  0  0  0  0  0  0  0
    3.0991   -2.3398    0.8507 H   0  0  0  0  0  0  0  0  0  0  0  0
    1.9579   -1.1470    2.6900 H   0  0  0  0  0  0  0  0  0  0  0  0
    3.5569   -1.7426    3.2471 H   0  0  0  0  0  0  0  0  0  0  0  0
    3.3465   -0.0069    2.8673 H   0  0  0  0  0  0  0  0  0  0  0  0
    5.3021   -0.1460    1.0254 H   0  0  0  0  0  0  0  0  0  0  0  0
    5.5186   -1.8277    1.6120 H   0  0  0  0  0  0  0  0  0  0  0  0
    5.2759   -1.5168   -0.1314 H   0  0  0  0  0  0  0  0  0  0  0  0
  1 15  1  0  0  0  0
  2  3  1  0  0  0  0
  2 23  1  0  0  0  0
  3 19  1  0  0  0  0
  4  9  1  0  0  0  0
  5  4  2  0  0  0  0
  6  5  1  0  0  0  0
  6  7  2  0  0  0  0
  7  8  1  0  0  0  0
  8  9  2  0  0  0  0
  8 28  1  0  0  0  0
  9 19  1  0  0  0  0
 10 30  1  0  0  0  0
 10  5  1  0  0  0  0
 10  1  1  0  0  0  0
 11 12  1  0  0  0  0
 11  1  1  0  0  0  0
 12 32  1  0  0  0  0
 12 33  1  0  0  0  0
 13 35  1  0  0  0  0
 13 11  1  0  0  0  0
 14 11  1  0  0  0  0
 14 39  1  0  0  0  0
 15 18  1  0  0  0  0
 15 16  1  0  0  0  0
 16 42  1  0  0  0  0
 16 40  1  0  0  0  0
 17 15  1  0  0  0  0
 17 45  1  0  0  0  0
 18 47  1  0  0  0  0
 18 46  1  0  0  0  0
 19 50  1  0  0  0  0
 19 49  1  0  0  0  0
 20  2  1  0  0  0  0
 21 52  1  0  0  0  0
 21 20  1  0  0  0  0
 22 57  1  0  0  0  0
 22 20  1  0  0  0  0
 22 56  1  0  0  0  0
 23 24  1  0  0  0  0
 24 59  1  0  0  0  0
 24 61  1  0  0  0  0
 24 60  1  0  0  0  0
 25 62  1  0  0  0  0
 25 23  1  0  0  0  0
 25 63  1  0  0  0  0
 26  6  1  0  0  0  0
 27  7  1  0  0  0  0
 29 10  1  0  0  0  0
 31 12  1  0  0  0  0
 34 13  1  0  0  0  0
 36 13  1  0  0  0  0
 37 14  1  0  0  0  0
 38 14  1  0  0  0  0
 41 16  1  0  0  0  0
 43 17  1  0  0  0  0
 44 17  1  0  0  0  0
 48 18  1  0  0  0  0
 51 20  1  0  0  0  0
 53 21  1  0  0  0  0
 54 21  1  0  0  0  0
 55 22  1  0  0  0  0
 58 23  1  0  0  0  0
 64 25  1  0  0  0  0
M  END
