1,2,15
q = -1.0, confidence = 0.012

 71 71  0  0  0  0  0  0  0  0999 V2000
   -0.3135    2.2233    0.0249 P   0  0  0  0  0  0  0  0  0  0  0  0
   -0.9940   -2.0883    0.0190 P   0  0  0  0  0  0  0  0  0  0  0  0
    0.6231   -2.5650   -0.0687 O   0  0  0  0  0  0  0  0  0  0  0  0
    1.3732    2.1792   -0.0522 O   0  0  0  0  0  0  0  0  0  0  0  0
    5.6756   -2.0538   -0.1122 O   0  0  0  0  0  0  0  0  0  0  0  0
    5.9592    0.1987   -0.1096 O   0  0  0  0  0  0  0  0  0  0  0  0
    2.8646   -1.7271   -0.0842 C   0  0  0  0  0  0  0  0  0  0  0  0
    3.2716   -2.7472   -0.0933 H   0  0  0  0  0  0  0  0  0  0  0  0
    1.8640    0.8874   -0.0607 C   0  0  0  0  0  0  0  0  0  0  0  0
   -1.6902   -2.9523   -1.5060 C   0  0  0  0  0  0  0  0  0  0  0  0
   -0.5900    2.2660   -2.6733 C   0  0  0  0  0  0  0  0  0  0  0  0
    0.4051    1.7791   -2.7099 H   0  0  0  0  0  0  0  0  0  0  0  0
   -1.3609    1.4719   -2.6100 H   0  0  0  0  0  0  0  0  0  0  0  0
   -0.7356    2.8102   -3.6294 H   0  0  0  0  0  0  0  0  0  0  0  0
    0.9353   -0.1828   -0.0579 C   0  0  0  0  0  3  0  0  0  0  0  0
    3.2494    0.6933   -0.0760 C   0  0  0  0  0  0  0  0  0  0  0  0
    3.9343    1.5501   -0.0789 H   0  0  0  0  0  0  0  0  0  0  0  0
   -0.6997    3.2638   -1.5001 C   0  0  0  0  0  0  0  0  0  0  0  0
    1.4881   -1.4880   -0.0692 C   0  0  0  0  0  0  0  0  0  0  0  0
    3.7422   -0.6263   -0.0878 C   0  0  0  0  0  0  0  0  0  0  0  0
   -0.5944    3.0616    1.6895 C   0  0  0  0  0  0  0  0  0  0  0  0
    0.1811    2.1933    2.7019 C   0  0  0  0  0  0  0  0  0  0  0  0
   -0.1472    1.1343    2.6729 H   0  0  0  0  0  0  0  0  0  0  0  0
    1.2719    2.2194    2.5181 H   0  0  0  0  0  0  0  0  0  0  0  0
   -0.0063    2.5817    3.7239 H   0  0  0  0  0  0  0  0  0  0  0  0
   -1.0573   -4.3397   -1.7093 C   0  0  0  0  0  0  0  0  0  0  0  0
    0.0468   -4.2835   -1.7338 H   0  0  0  0  0  0  0  0  0  0  0  0
   -1.3535   -5.0614   -0.9270 H   0  0  0  0  0  0  0  0  0  0  0  0
   -1.4033   -4.7422   -2.6841 H   0  0  0  0  0  0  0  0  0  0  0  0
   -3.2211   -3.0544   -1.4108 C   0  0  0  0  0  0  0  0  0  0  0  0
   -3.6957   -2.0710   -1.2214 H   0  0  0  0  0  0  0  0  0  0  0  0
   -3.6152   -3.4310   -2.3773 H   0  0  0  0  0  0  0  0  0  0  0  0
   -3.5474   -3.7631   -0.6250 H   0  0  0  0  0  0  0  0  0  0  0  0
    5.2108   -0.9276   -0.1045 C   0  0  0  0  0  0  0  0  0  0  0  0
   -2.9245   -2.3074    2.0315 C   0  0  0  0  0  0  0  0  0  0  0  0
   -2.9648   -1.2010    2.0785 H   0  0  0  0  0  0  0  0  0  0  0  0
   -3.6918   -2.6589    1.3153 H   0  0  0  0  0  0  0  0  0  0  0  0
   -3.2031   -2.6956    3.0329 H   0  0  0  0  0  0  0  0  0  0  0  0
   -1.2925   -2.0269   -2.6761 C   0  0  0  0  0  0  0  0  0  0  0  0
   -0.1970   -1.8631   -2.7189 H   0  0  0  0  0  0  0  0  0  0  0  0
   -1.6019   -2.4955   -3.6333 H   0  0  0  0  0  0  0  0  0  0  0  0
   -1.7873   -1.0376   -2.6027 H   0  0  0  0  0  0  0  0  0  0  0  0
   -2.1289    3.8235   -1.4161 C   0  0  0  0  0  0  0  0  0  0  0  0
   -2.8791    3.0290   -1.2317 H   0  0  0  0  0  0  0  0  0  0  0  0
   -2.2320    4.5982   -0.6317 H   0  0  0  0  0  0  0  0  0  0  0  0
   -2.3840    4.3006   -2.3849 H   0  0  0  0  0  0  0  0  0  0  0  0
    0.3254    4.3950   -1.6892 C   0  0  0  0  0  0  0  0  0  0  0  0
    1.3608    4.0066   -1.7026 H   0  0  0  0  0  0  0  0  0  0  0  0
    0.1292    4.8858   -2.6652 H   0  0  0  0  0  0  0  0  0  0  0  0
    0.2526    5.1705   -0.9057 H   0  0  0  0  0  0  0  0  0  0  0  0
   -0.0524    4.4986    1.7097 C   0  0  0  0  0  0  0  0  0  0  0  0
    1.0058    4.5408    1.3865 H   0  0  0  0  0  0  0  0  0  0  0  0
   -0.6484    5.1827    1.0754 H   0  0  0  0  0  0  0  0  0  0  0  0
   -0.1023    4.8852    2.7491 H   0  0  0  0  0  0  0  0  0  0  0  0
    7.3793   -0.0087   -0.1257 C   0  0  0  0  0  0  0  0  0  0  0  0
    7.8352    0.9966   -0.1308 H   0  0  0  0  0  0  0  0  0  0  0  0
    7.7015   -0.5781    0.7689 H   0  0  0  0  0  0  0  0  0  0  0  0
    7.6811   -0.5781   -1.0273 H   0  0  0  0  0  0  0  0  0  0  0  0
   -2.0958    3.0239    2.0263 C   0  0  0  0  0  0  0  0  0  0  0  0
   -2.4772    1.9843    2.0642 H   0  0  0  0  0  0  0  0  0  0  0  0
   -2.2479    3.4737    3.0292 H   0  0  0  0  0  0  0  0  0  0  0  0
   -2.7110    3.5999    1.3088 H   0  0  0  0  0  0  0  0  0  0  0  0
   -1.4403   -4.3408    1.6932 C   0  0  0  0  0  0  0  0  0  0  0  0
   -0.4492   -4.7066    1.3619 H   0  0  0  0  0  0  0  0  0  0  0  0
   -1.6016   -4.6996    2.7311 H   0  0  0  0  0  0  0  0  0  0  0  0
   -2.2226   -4.8021    1.0601 H   0  0  0  0  0  0  0  0  0  0  0  0
   -1.5106   -2.8064    1.6833 C   0  0  0  0  0  0  0  0  0  0  0  0
   -0.4980   -2.2271    2.6929 C   0  0  0  0  0  0  0  0  0  0  0  0
   -0.4809   -1.1184    2.6693 H   0  0  0  0  0  0  0  0  0  0  0  0
   -0.7915   -2.5430    3.7149 H   0  0  0  0  0  0  0  0  0  0  0  0
    0.5295   -2.5904    2.5022 H   0  0  0  0  0  0  0  0  0  0  0  0
  1 21  1  0  0  0  0
  2 67  1  0  0  0  0
  3  2  1  0  0  0  0
  4  1  1  0  0  0  0
  5 34  2  0  0  0  0
  6 34  1  0  0  0  0
  7 19  1  0  0  0  0
  8  7  1  0  0  0  0
  9 15  1  0  0  0  0
  9  4  1  0  0  0  0
 10 30  1  0  0  0  0
 10  2  1  0  0  0  0
 11 13  1  0  0  0  0
 11 18  1  0  0  0  0
 12 11  1  0  0  0  0
 14 11  1  0  0  0  0
 16  9  2  0  0  0  0
 17 16  1  0  0  0  0
 18 43  1  0  0  0  0
 18  1  1  0  0  0  0
 19  3  1  0  0  0  0
 19 15  2  0  0  0  0
 20  7  2  0  0  0  0
 20 16  1  0  0  0  0
 21 51  1  0  0  0  0
 21 59  1  0  0  0  0
 21 22  1  0  0  0  0
 22 25  1  0  0  0  0
 23 22  1  0  0  0  0
 24 22  1  0  0  0  0
 26 10  1  0  0  0  0
 26 28  1  0  0  0  0
 27 26  1  0  0  0  0
 29 26  1  0  0  0  0
 30 31  1  0  0  0  0
 30 33  1  0  0  0  0
 32 30  1  0  0  0  0
 34 20  1  0  0  0  0
 35 36  1  0  0  0  0
 35 38  1  0  0  0  0
 37 35  1  0  0  0  0
 39 42  1  0  0  0  0
 39 10  1  0  0  0  0
 40 39  1  0  0  0  0
 41 39  1  0  0  0  0
 43 44  1  0  0  0  0
 43 45  1  0  0  0  0
 46 43  1  0  0  0  0
 47 18  1  0  0  0  0
 47 50  1  0  0  0  0
 48 47  1  0  0  0  0
 49 47  1  0  0  0  0
 51 54  1  0  0  0  0
 52 51  1  0  0  0  0
 53 51  1  0  0  0  0
 55  6  1  0  0  0  0
 55 57  1  0  0  0  0
 56 55  1  0  0  0  0
 58 55  1  0  0  0  0
 59 60  1  0  0  0  0
 59 61  1  0  0  0  0
 62 59  1  0  0  0  0
 63 65  1  0  0  0  0
 64 63  1  0  0  0  0
 66 63  1  0  0  0  0
 67 63  1  0  0  0  0
 67 35  1  0  0  0  0
 67 68  1  0  0  0  0
 68 70  1  0  0  0  0
 69 68  1  0  0  0  0
 71 68  1  0  0  0  0
M  END
