1,2,5
q = -1.0

 61 63  0  0  0  0  0  0  0  0999 V2000
    2.0322    0.0608    0.6555 P   0  0  1  0  0  0  0  0  0  0  0  0
   -2.0332    0.0565   -0.6597 P   0  0  2  0  0  0  0  0  0  0  0  0
    2.2555    1.7398    0.8117 O   0  0  0  0  0  0  0  0  0  0  0  0
   -2.2580    1.7346   -0.8229 O   0  0  0  0  0  0  0  0  0  0  0  0
   -0.0011    1.6833   -0.0058 C   0  0  0  0  0  3  0  0  0  0  0  0
    1.1290    2.4322    0.4009 C   0  0  0  0  0  0  0  0  0  0  0  0
    1.1491    3.8351    0.4052 C   0  0  0  0  0  0  0  0  0  0  0  0
    2.0552    4.3660    0.7287 H   0  0  0  0  0  0  0  0  0  0  0  0
   -0.0033    4.5235   -0.0085 C   0  0  0  0  0  0  0  0  0  0  0  0
   -0.0042    5.6239   -0.0096 H   0  0  0  0  0  0  0  0  0  0  0  0
   -1.1548    3.8325   -0.4208 C   0  0  0  0  0  0  0  0  0  0  0  0
   -2.0617    4.3613   -0.7453 H   0  0  0  0  0  0  0  0  0  0  0  0
   -1.1324    2.4296   -0.4137 C   0  0  0  0  0  0  0  0  0  0  0  0
    3.3830   -0.3923   -0.4832 C   0  0  0  0  0  0  0  0  0  0  0  0
    4.4579    0.4879   -0.7260 C   0  0  0  0  0  0  0  0  0  0  0  0
    4.4723    1.4733   -0.2381 H   0  0  0  0  0  0  0  0  0  0  0  0
    5.4859    0.1049   -1.6000 C   0  0  0  0  0  0  0  0  0  0  0  0
    6.3235    0.7930   -1.7909 H   0  0  0  0  0  0  0  0  0  0  0  0
    5.4454   -1.1482   -2.2330 C   0  0  0  0  0  0  0  0  0  0  0  0
    6.2542   -1.4441   -2.9185 H   0  0  0  0  0  0  0  0  0  0  0  0
    4.3671   -2.0178   -2.0014 C   0  0  0  0  0  0  0  0  0  0  0  0
    4.3258   -2.9938   -2.5086 H   0  0  0  0  0  0  0  0  0  0  0  0
    3.3303   -1.6437   -1.1344 C   0  0  0  0  0  0  0  0  0  0  0  0
    2.4656   -2.3070   -0.9683 H   0  0  0  0  0  0  0  0  0  0  0  0
    2.5338   -0.5296    2.3680 C   0  0  0  0  0  0  0  0  0  0  0  0
    1.3494   -0.1806    3.2871 C   0  0  0  0  0  0  0  0  0  0  0  0
    1.5896   -0.4747    4.3305 H   0  0  0  0  0  0  0  0  0  0  0  0
    0.4332   -0.7214    2.9754 H   0  0  0  0  0  0  0  0  0  0  0  0
    1.1312    0.9063    3.2787 H   0  0  0  0  0  0  0  0  0  0  0  0
    3.8153    0.1894    2.8123 C   0  0  0  0  0  0  0  0  0  0  0  0
    4.6654   -0.0358    2.1371 H   0  0  0  0  0  0  0  0  0  0  0  0
    4.0916   -0.1593    3.8299 H   0  0  0  0  0  0  0  0  0  0  0  0
    3.6755    1.2869    2.8465 H   0  0  0  0  0  0  0  0  0  0  0  0
    2.7447   -2.0512    2.3091 C   0  0  0  0  0  0  0  0  0  0  0  0
    3.6174   -2.3186    1.6804 H   0  0  0  0  0  0  0  0  0  0  0  0
    1.8518   -2.5709    1.9071 H   0  0  0  0  0  0  0  0  0  0  0  0
    2.9391   -2.4266    3.3359 H   0  0  0  0  0  0  0  0  0  0  0  0
   -2.5428   -0.5419   -2.3669 C   0  0  0  0  0  0  0  0  0  0  0  0
   -1.3626   -0.1972   -3.2930 C   0  0  0  0  0  0  0  0  0  0  0  0
   -0.4451   -0.7365   -2.9827 H   0  0  0  0  0  0  0  0  0  0  0  0
   -1.1447    0.8897   -3.2908 H   0  0  0  0  0  0  0  0  0  0  0  0
   -1.6076   -0.4964   -4.3338 H   0  0  0  0  0  0  0  0  0  0  0  0
   -2.7534   -2.0632   -2.2999 C   0  0  0  0  0  0  0  0  0  0  0  0
   -1.8584   -2.5810   -1.9001 H   0  0  0  0  0  0  0  0  0  0  0  0
   -2.9530   -2.4432   -3.3240 H   0  0  0  0  0  0  0  0  0  0  0  0
   -3.6229   -2.3277   -1.6655 H   0  0  0  0  0  0  0  0  0  0  0  0
   -3.8264    0.1750   -2.8084 C   0  0  0  0  0  0  0  0  0  0  0  0
   -4.1074   -0.1785   -3.8231 H   0  0  0  0  0  0  0  0  0  0  0  0
   -3.6869    1.2723   -2.8483 H   0  0  0  0  0  0  0  0  0  0  0  0
   -4.6734   -0.0471   -2.1283 H   0  0  0  0  0  0  0  0  0  0  0  0
   -3.3777   -0.3922    0.4881 C   0  0  0  0  0  0  0  0  0  0  0  0
   -4.4520    0.4883    0.7325 C   0  0  0  0  0  0  0  0  0  0  0  0
   -4.4698    1.4713    0.2399 H   0  0  0  0  0  0  0  0  0  0  0  0
   -5.4748    0.1088    1.6140 C   0  0  0  0  0  0  0  0  0  0  0  0
   -6.3120    0.7972    1.8061 H   0  0  0  0  0  0  0  0  0  0  0  0
   -5.4300   -1.1411    2.2529 C   0  0  0  0  0  0  0  0  0  0  0  0
   -6.2348   -1.4343    2.9442 H   0  0  0  0  0  0  0  0  0  0  0  0
   -4.3523   -2.0111    2.0196 C   0  0  0  0  0  0  0  0  0  0  0  0
   -4.3075   -2.9846    2.5313 H   0  0  0  0  0  0  0  0  0  0  0  0
   -3.3205   -1.6404    1.1452 C   0  0  0  0  0  0  0  0  0  0  0  0
   -2.4562   -2.3039    0.9775 H   0  0  0  0  0  0  0  0  0  0  0  0
  1  3  1  1  0  0  0
  1 25  1  0  0  0  0
  2  4  1  6  0  0  0
  2 51  1  0  0  0  0
  4 13  1  0  0  0  0
  5  6  1  0  0  0  0
  6  7  2  0  0  0  0
  6  3  1  0  0  0  0
  7  8  1  0  0  0  0
  9  7  1  0  0  0  0
 10  9  1  0  0  0  0
 11 13  1  0  0  0  0
 11  9  2  0  0  0  0
 12 11  1  0  0  0  0
 13  5  2  0  0  0  0
 14  1  1  0  0  0  0
 15 14  1  0  0  0  0
 15 16  1  0  0  0  0
 17 15  2  0  0  0  0
 18 17  1  0  0  0  0
 19 21  2  0  0  0  0
 19 17  1  0  0  0  0
 20 19  1  0  0  0  0
 21 23  1  0  0  0  0
 22 21  1  0  0  0  0
 23 24  1  0  0  0  0
 23 14  2  0  0  0  0
 25 30  1  0  0  0  0
 25 26  1  0  0  0  0
 26 27  1  0  0  0  0
 28 26  1  0  0  0  0
 29 26  1  0  0  0  0
 30 33  1  0  0  0  0
 30 32  1  0  0  0  0
 31 30  1  0  0  0  0
 34 25  1  0  0  0  0
 34 37  1  0  0  0  0
 35 34  1  0  0  0  0
 36 34  1  0  0  0  0
 38 43  1  0  0  0  0
 38  2  1  0  0  0  0
 39 41  1  0  0  0  0
 39 40  1  0  0  0  0
 39 38  1  0  0  0  0
 42 39  1  0  0  0  0
 43 44  1  0  0  0  0
 43 46  1  0  0  0  0
 45 43  1  0  0  0  0
 47 38  1  0  0  0  0
 47 50  1  0  0  0  0
 48 47  1  0  0  0  0
 49 47  1  0  0  0  0
 51 52  2  0  0  0  0
 51 60  1  0  0  0  0
 52 54  1  0  0  0  0
 53 52  1  0  0  0  0
 54 55  1  0  0  0  0
 54 56  2  0  0  0  0
 56 57  1  0  0  0  0
 58 56  1  0  0  0  0
 58 59  1  0  0  0  0
 60 58  2  0  0  0  0
 61 60  1  0  0  0  0
M  END
