1,2,4
q = -1.0

 67 67  0  0  0  0  0  0  0  0999 V2000
    2.3223    0.0354   -0.1143 P   0  0  0  0  0  0  0  0  0  0  0  0
   -2.2677   -0.0971   -0.0194 P   0  0  0  0  0  0  0  0  0  0  0  0
   -2.4853    1.5949   -0.0215 O   0  0  0  0  0  0  0  0  0  0  0  0
   -0.0691    1.6784   -0.2469 C   0  0  0  0  0  3  0  0  0  0  0  0
    1.0830    2.4923   -0.4268 C   0  0  0  0  0  0  0  0  0  0  0  0
    0.9802    3.8981   -0.4034 C   0  0  0  0  0  0  0  0  0  0  0  0
    1.8854    4.5138   -0.5255 H   0  0  0  0  0  0  0  0  0  0  0  0
   -0.2696    4.5157   -0.2429 C   0  0  0  0  0  0  0  0  0  0  0  0
   -0.3448    5.6134   -0.2262 H   0  0  0  0  0  0  0  0  0  0  0  0
   -1.4326    3.7378   -0.1159 C   0  0  0  0  0  0  0  0  0  0  0  0
   -2.4253    4.1983   -0.0067 H   0  0  0  0  0  0  0  0  0  0  0  0
   -1.3210    2.3407   -0.1298 C   0  0  0  0  0  0  0  0  0  0  0  0
    2.4081    1.8083   -0.6906 C   0  0  0  0  0  0  0  0  0  0  0  0
    3.2709    2.3501   -0.2507 H   0  0  0  0  0  0  0  0  0  0  0  0
    2.5949    1.7662   -1.7861 H   0  0  0  0  0  0  0  0  0  0  0  0
    3.0264    0.0716    1.6617 C   0  0  0  0  0  0  0  0  0  0  0  0
    2.8580   -1.3068    2.3273 C   0  0  0  0  0  0  0  0  0  0  0  0
    3.0308   -1.2011    3.4194 H   0  0  0  0  0  0  0  0  0  0  0  0
    3.5858   -2.0467    1.9470 H   0  0  0  0  0  0  0  0  0  0  0  0
    1.8461   -1.7304    2.1669 H   0  0  0  0  0  0  0  0  0  0  0  0
    4.4965    0.5113    1.7202 C   0  0  0  0  0  0  0  0  0  0  0  0
    5.1737   -0.2457    1.2797 H   0  0  0  0  0  0  0  0  0  0  0  0
    4.7953    0.6389    2.7827 H   0  0  0  0  0  0  0  0  0  0  0  0
    4.6744    1.4799    1.2110 H   0  0  0  0  0  0  0  0  0  0  0  0
    2.1522    1.0929    2.4203 C   0  0  0  0  0  0  0  0  0  0  0  0
    2.2257    2.1176    2.0070 H   0  0  0  0  0  0  0  0  0  0  0  0
    2.4815    1.1262    3.4803 H   0  0  0  0  0  0  0  0  0  0  0  0
    1.0813    0.8073    2.4043 H   0  0  0  0  0  0  0  0  0  0  0  0
    3.4163   -0.9383   -1.3285 C   0  0  0  0  0  0  0  0  0  0  0  0
    3.6740   -2.3469   -0.7659 C   0  0  0  0  0  0  0  0  0  0  0  0
    4.1104   -2.9819   -1.5661 H   0  0  0  0  0  0  0  0  0  0  0  0
    2.7334   -2.8227   -0.4191 H   0  0  0  0  0  0  0  0  0  0  0  0
    4.3976   -2.3322    0.0721 H   0  0  0  0  0  0  0  0  0  0  0  0
    4.7402   -0.2263   -1.6528 C   0  0  0  0  0  0  0  0  0  0  0  0
    4.5811    0.7772   -2.0953 H   0  0  0  0  0  0  0  0  0  0  0  0
    5.3001   -0.8282   -2.4003 H   0  0  0  0  0  0  0  0  0  0  0  0
    5.3909   -0.1123   -0.7664 H   0  0  0  0  0  0  0  0  0  0  0  0
    2.5763   -1.0706   -2.6152 C   0  0  0  0  0  0  0  0  0  0  0  0
    3.1735   -1.6045   -3.3845 H   0  0  0  0  0  0  0  0  0  0  0  0
    2.2910   -0.0856   -3.0386 H   0  0  0  0  0  0  0  0  0  0  0  0
    1.6503   -1.6472   -2.4257 H   0  0  0  0  0  0  0  0  0  0  0  0
   -2.9999   -0.5151    1.6756 C   0  0  0  0  0  0  0  0  0  0  0  0
   -3.2797   -2.0248    1.7536 C   0  0  0  0  0  0  0  0  0  0  0  0
   -3.5128   -2.2950    2.8056 H   0  0  0  0  0  0  0  0  0  0  0  0
   -2.3973   -2.6187    1.4351 H   0  0  0  0  0  0  0  0  0  0  0  0
   -4.1539   -2.3156    1.1383 H   0  0  0  0  0  0  0  0  0  0  0  0
   -4.2471    0.3159    2.0127 C   0  0  0  0  0  0  0  0  0  0  0  0
   -4.5232    0.1330    3.0731 H   0  0  0  0  0  0  0  0  0  0  0  0
   -5.1194    0.0426    1.3916 H   0  0  0  0  0  0  0  0  0  0  0  0
   -4.0557    1.3987    1.8867 H   0  0  0  0  0  0  0  0  0  0  0  0
   -1.8661   -0.1509    2.6599 C   0  0  0  0  0  0  0  0  0  0  0  0
   -0.9721   -0.7883    2.4944 H   0  0  0  0  0  0  0  0  0  0  0  0
   -2.2133   -0.3261    3.7003 H   0  0  0  0  0  0  0  0  0  0  0  0
   -1.5702    0.9142    2.5741 H   0  0  0  0  0  0  0  0  0  0  0  0
   -3.3505   -0.6123   -1.4766 C   0  0  0  0  0  0  0  0  0  0  0  0
   -3.1309   -2.1177   -1.7157 C   0  0  0  0  0  0  0  0  0  0  0  0
   -3.5986   -2.4041   -2.6814 H   0  0  0  0  0  0  0  0  0  0  0  0
   -3.5879   -2.7401   -0.9236 H   0  0  0  0  0  0  0  0  0  0  0  0
   -2.0522   -2.3708   -1.7567 H   0  0  0  0  0  0  0  0  0  0  0  0
   -4.8362   -0.2837   -1.2732 C   0  0  0  0  0  0  0  0  0  0  0  0
   -5.2967   -0.9070   -0.4825 H   0  0  0  0  0  0  0  0  0  0  0  0
   -5.3874   -0.4877   -2.2159 H   0  0  0  0  0  0  0  0  0  0  0  0
   -4.9860    0.7837   -1.0173 H   0  0  0  0  0  0  0  0  0  0  0  0
   -2.8108    0.1839   -2.6817 C   0  0  0  0  0  0  0  0  0  0  0  0
   -3.3868   -0.1009   -3.5869 H   0  0  0  0  0  0  0  0  0  0  0  0
   -1.7431   -0.0423   -2.8721 H   0  0  0  0  0  0  0  0  0  0  0  0
   -2.9128    1.2761   -2.5317 H   0  0  0  0  0  0  0  0  0  0  0  0
  1 16  1  0  0  0  0
  2 42  1  0  0  0  0
  3  2  1  0  0  0  0
  4 12  1  0  0  0  0
  5  6  1  0  0  0  0
  5  4  2  0  0  0  0
  6  8  2  0  0  0  0
  7  6  1  0  0  0  0
  8  9  1  0  0  0  0
  8 10  1  0  0  0  0
 10 11  1  0  0  0  0
 12 10  2  0  0  0  0
 12  3  1  0  0  0  0
 13  5  1  0  0  0  0
 13 14  1  0  0  0  0
 13  1  1  0  0  0  0
 15 13  1  0  0  0  0
 16 21  1  0  0  0  0
 16 17  1  0  0  0  0
 16 25  1  0  0  0  0
 17 18  1  0  0  0  0
 19 17  1  0  0  0  0
 20 17  1  0  0  0  0
 21 23  1  0  0  0  0
 22 21  1  0  0  0  0
 24 21  1  0  0  0  0
 25 27  1  0  0  0  0
 26 25  1  0  0  0  0
 28 25  1  0  0  0  0
 29 30  1  0  0  0  0
 29  1  1  0  0  0  0
 30 32  1  0  0  0  0
 30 33  1  0  0  0  0
 31 30  1  0  0  0  0
 34 29  1  0  0  0  0
 34 37  1  0  0  0  0
 35 34  1  0  0  0  0
 36 34  1  0  0  0  0
 38 41  1  0  0  0  0
 38 29  1  0  0  0  0
 39 38  1  0  0  0  0
 40 38  1  0  0  0  0
 42 43  1  0  0  0  0
 42 47  1  0  0  0  0
 42 51  1  0  0  0  0
 43 44  1  0  0  0  0
 45 43  1  0  0  0  0
 46 43  1  0  0  0  0
 47 48  1  0  0  0  0
 49 47  1  0  0  0  0
 50 47  1  0  0  0  0
 51 53  1  0  0  0  0
 52 51  1  0  0  0  0
 54 51  1  0  0  0  0
 55 60  1  0  0  0  0
 55  2  1  0  0  0  0
 56 55  1  0  0  0  0
 56 58  1  0  0  0  0
 57 56  1  0  0  0  0
 59 56  1  0  0  0  0
 60 63  1  0  0  0  0
 60 61  1  0  0  0  0
 62 60  1  0  0  0  0
 64 67  1  0  0  0  0
 64 55  1  0  0  0  0
 65 64  1  0  0  0  0
 66 64  1  0  0  0  0
M  END
