1,2,3
q = -1.0

 53 57  0  0  0  0  0  0  0  0999 V2000
    2.1186    0.3557   -0.0768 P   0  0  0  0  0  0  0  0  0  0  0  0
   -1.9711    0.7009   -0.0306 P   0  0  0  0  0  0  0  0  0  0  0  0
    0.0635    0.0937    1.7730 C   0  0  0  0  0  3  0  0  0  0  0  0
   -1.1267    0.3952    2.4914 C   0  0  0  0  0  0  0  0  0  0  0  0
   -1.0789    0.7118    3.8621 C   0  0  0  0  0  0  0  0  0  0  0  0
   -2.0103    0.9529    4.3985 H   0  0  0  0  0  0  0  0  0  0  0  0
    0.1469    0.7359    4.5435 C   0  0  0  0  0  0  0  0  0  0  0  0
    0.1789    0.9848    5.6148 H   0  0  0  0  0  0  0  0  0  0  0  0
    1.3350    0.4736    3.8450 C   0  0  0  0  0  0  0  0  0  0  0  0
    2.3030    0.5246    4.3687 H   0  0  0  0  0  0  0  0  0  0  0  0
    1.3012    0.1638    2.4717 C   0  0  0  0  0  0  0  0  0  0  0  0
    2.5700   -0.0409    1.6769 C   0  0  0  0  0  0  0  0  0  0  0  0
    2.8752   -1.1108    1.6410 H   0  0  0  0  0  0  0  0  0  0  0  0
    3.4336    0.5427    2.0543 H   0  0  0  0  0  0  0  0  0  0  0  0
   -2.4360    0.3833    1.7350 C   0  0  0  0  0  0  0  0  0  0  0  0
   -3.1755    1.1122    2.1232 H   0  0  0  0  0  0  0  0  0  0  0  0
   -2.8977   -0.6290    1.7584 H   0  0  0  0  0  0  0  0  0  0  0  0
    2.5340    2.0842   -0.1415 N   0  0  0  0  0  0  0  0  0  0  0  0
    2.3686    3.0000    0.8948 C   0  0  0  0  0  0  0  0  0  0  0  0
    2.5055    4.2759    0.3675 C   0  0  0  0  0  0  0  0  0  0  0  0
    2.7421    4.1379   -1.0371 C   0  0  0  0  0  0  0  0  0  0  0  0
    2.7403    2.7812   -1.3278 C   0  0  0  0  0  0  0  0  0  0  0  0
    3.4862   -0.2165   -1.0156 N   0  0  0  0  0  0  0  0  0  0  0  0
    4.8251    0.1024   -0.7974 C   0  0  0  0  0  0  0  0  0  0  0  0
    5.5883   -0.5917   -1.7209 C   0  0  0  0  0  0  0  0  0  0  0  0
    4.6906   -1.3575   -2.5348 C   0  0  0  0  0  0  0  0  0  0  0  0
    3.4057   -1.1092   -2.0828 C   0  0  0  0  0  0  0  0  0  0  0  0
   -2.0499    2.4466   -0.1711 N   0  0  0  0  0  0  0  0  0  0  0  0
   -3.1616    3.2620    0.0340 C   0  0  0  0  0  0  0  0  0  0  0  0
   -2.7480    4.5791   -0.0833 C   0  0  0  0  0  0  0  0  0  0  0  0
   -1.3412    4.5689   -0.3635 C   0  0  0  0  0  0  0  0  0  0  0  0
   -0.9360    3.2469   -0.4144 C   0  0  0  0  0  0  0  0  0  0  0  0
   -3.4493    0.2876   -0.8966 N   0  0  0  0  0  0  0  0  0  0  0  0
   -3.5317    0.3349   -2.2843 C   0  0  0  0  0  0  0  0  0  0  0  0
   -4.7939   -0.0963   -2.6606 C   0  0  0  0  0  0  0  0  0  0  0  0
   -5.5079   -0.4243   -1.4647 C   0  0  0  0  0  0  0  0  0  0  0  0
   -4.6617   -0.1785   -0.3933 C   0  0  0  0  0  0  0  0  0  0  0  0
    2.1316    2.6689    1.9109 H   0  0  0  0  0  0  0  0  0  0  0  0
    2.4423    5.2097    0.9378 H   0  0  0  0  0  0  0  0  0  0  0  0
    2.9123    4.9445   -1.7595 H   0  0  0  0  0  0  0  0  0  0  0  0
    2.8977    2.2443   -2.2697 H   0  0  0  0  0  0  0  0  0  0  0  0
    5.1079    0.8199   -0.0200 H   0  0  0  0  0  0  0  0  0  0  0  0
    6.6802   -0.5463   -1.8088 H   0  0  0  0  0  0  0  0  0  0  0  0
    4.9568   -2.0142   -3.3708 H   0  0  0  0  0  0  0  0  0  0  0  0
    2.4348   -1.4805   -2.4232 H   0  0  0  0  0  0  0  0  0  0  0  0
   -4.1520    2.8269    0.2085 H   0  0  0  0  0  0  0  0  0  0  0  0
   -3.3946    5.4601    0.0098 H   0  0  0  0  0  0  0  0  0  0  0  0
   -0.6876    5.4347   -0.5175 H   0  0  0  0  0  0  0  0  0  0  0  0
    0.0417    2.7892   -0.5976 H   0  0  0  0  0  0  0  0  0  0  0  0
   -2.6801    0.6797   -2.8811 H   0  0  0  0  0  0  0  0  0  0  0  0
   -5.1635   -0.1683   -3.6898 H   0  0  0  0  0  0  0  0  0  0  0  0
   -6.5362   -0.7968   -1.3917 H   0  0  0  0  0  0  0  0  0  0  0  0
   -4.8282   -0.2877    0.6820 H   0  0  0  0  0  0  0  0  0  0  0  0
  1 12  1  0  0  0  0
  2 15  1  0  0  0  0
  3 11  2  0  0  0  0
  3  4  1  0  0  0  0
  4  5  2  0  0  0  0
  5  6  1  0  0  0  0
  5  7  1  0  0  0  0
  7  8  1  0  0  0  0
  9 10  1  0  0  0  0
  9  7  2  0  0  0  0
 11  9  1  0  0  0  0
 12 14  1  0  0  0  0
 12 11  1  0  0  0  0
 13 12  1  0  0  0  0
 15 17  1  0  0  0  0
 15 16  1  0  0  0  0
 15  4  1  0  0  0  0
 18  1  1  0  0  0  0
 18 19  1  0  0  0  0
 19 38  1  0  0  0  0
 20 19  2  0  0  0  0
 20 39  1  0  0  0  0
 21 20  1  0  0  0  0
 22 21  2  0  0  0  0
 22 18  1  0  0  0  0
 23 24  1  0  0  0  0
 23  1  1  0  0  0  0
 24 42  1  0  0  0  0
 25 24  2  0  0  0  0
 26 27  2  0  0  0  0
 26 25  1  0  0  0  0
 27 23  1  0  0  0  0
 28  2  1  0  0  0  0
 28 29  1  0  0  0  0
 29 46  1  0  0  0  0
 30 47  1  0  0  0  0
 30 29  2  0  0  0  0
 31 30  1  0  0  0  0
 32 31  2  0  0  0  0
 32 28  1  0  0  0  0
 33 37  1  0  0  0  0
 33  2  1  0  0  0  0
 34 33  1  0  0  0  0
 35 34  2  0  0  0  0
 35 36  1  0  0  0  0
 36 52  1  0  0  0  0
 36 37  2  0  0  0  0
 37 53  1  0  0  0  0
 40 21  1  0  0  0  0
 41 22  1  0  0  0  0
 43 25  1  0  0  0  0
 44 26  1  0  0  0  0
 45 27  1  0  0  0  0
 48 31  1  0  0  0  0
 49 32  1  0  0  0  0
 50 34  1  0  0  0  0
 51 35  1  0  0  0  0
M  END
