1,2,3
q = -1.0, confidence = 0.002

 67 71  0  0  1  0  0  0  0  0999 V2000
   -2.2687   -0.1978    0.0748 P   0  0  0  0  0  0  0  0  0  0  0  0
    2.2687    0.1978    0.0747 P   0  0  0  0  0  0  0  0  0  0  0  0
   -0.0000    0.0006    1.7854 C   0  0  0  0  0  3  0  0  0  0  0  0
    1.1336    0.4577    2.5194 C   0  0  0  0  0  0  0  0  0  0  0  0
    1.1277    0.4467    3.9273 C   0  0  0  0  0  0  0  0  0  0  0  0
   -0.0001    0.0017    4.6335 C   0  0  0  0  0  0  0  0  0  0  0  0
   -1.1278   -0.4439    3.9276 C   0  0  0  0  0  0  0  0  0  0  0  0
   -1.1336   -0.4559    2.5197 C   0  0  0  0  0  0  0  0  0  0  0  0
   -2.3223   -1.0192    1.7594 C   0  0  2  0  0  0  0  0  0  0  0  0
   -2.2136   -2.5459    1.5996 C   0  0  0  0  0  0  0  0  0  0  0  0
    2.3223    1.0203    1.7587 C   0  0  2  0  0  0  0  0  0  0  0  0
    2.2138    2.5469    1.5978 C   0  0  0  0  0  0  0  0  0  0  0  0
   -3.0938    1.4271    0.2538 C   0  0  0  0  0  0  0  0  0  0  0  0
   -3.6501    2.0358   -0.8912 C   0  0  0  0  0  0  0  0  0  0  0  0
   -4.2255    3.3107   -0.7996 C   0  0  0  0  0  0  0  0  0  0  0  0
   -4.2469    3.9897    0.4296 C   0  0  0  0  0  0  0  0  0  0  0  0
   -3.6830    3.3914    1.5675 C   0  0  0  0  0  0  0  0  0  0  0  0
   -3.1024    2.1169    1.4839 C   0  0  0  0  0  0  0  0  0  0  0  0
   -3.3806   -1.1607   -1.0109 C   0  0  0  0  0  0  0  0  0  0  0  0
   -4.7602   -1.2334   -0.7183 C   0  0  0  0  0  0  0  0  0  0  0  0
   -5.6011   -2.0289   -1.5078 C   0  0  0  0  0  0  0  0  0  0  0  0
   -5.0716   -2.7471   -2.5945 C   0  0  0  0  0  0  0  0  0  0  0  0
   -3.7031   -2.6645   -2.8921 C   0  0  0  0  0  0  0  0  0  0  0  0
   -2.8507   -1.8745   -2.1031 C   0  0  0  0  0  0  0  0  0  0  0  0
    3.3805    1.1601   -1.0118 C   0  0  0  0  0  0  0  0  0  0  0  0
    4.7603    1.2322   -0.7201 C   0  0  0  0  0  0  0  0  0  0  0  0
    5.6010    2.0275   -1.5099 C   0  0  0  0  0  0  0  0  0  0  0  0
    5.0710    2.7462   -2.5961 C   0  0  0  0  0  0  0  0  0  0  0  0
    3.7023    2.6643   -2.8927 C   0  0  0  0  0  0  0  0  0  0  0  0
    2.8501    1.8744   -2.1034 C   0  0  0  0  0  0  0  0  0  0  0  0
    3.0938   -1.4269    0.2547 C   0  0  0  0  0  0  0  0  0  0  0  0
    3.6494   -2.0367   -0.8900 C   0  0  0  0  0  0  0  0  0  0  0  0
    4.2248   -3.3116   -0.7977 C   0  0  0  0  0  0  0  0  0  0  0  0
    4.2469   -3.9895    0.4321 C   0  0  0  0  0  0  0  0  0  0  0  0
    3.6836   -3.3902    1.5698 C   0  0  0  0  0  0  0  0  0  0  0  0
    3.1031   -2.1156    1.4854 C   0  0  0  0  0  0  0  0  0  0  0  0
    2.0148    0.8018    4.4769 H   0  0  0  0  0  0  0  0  0  0  0  0
   -0.0001    0.0022    5.7340 H   0  0  0  0  0  0  0  0  0  0  0  0
   -2.0149   -0.7986    4.4775 H   0  0  0  0  0  0  0  0  0  0  0  0
   -3.2787   -0.7632    2.2644 H   0  0  0  0  0  0  0  0  0  0  0  0
   -1.2940   -2.8110    1.0389 H   0  0  0  0  0  0  0  0  0  0  0  0
   -2.1479   -3.0176    2.6006 H   0  0  0  0  0  0  0  0  0  0  0  0
   -3.0868   -2.9690    1.0651 H   0  0  0  0  0  0  0  0  0  0  0  0
    3.2787    0.7645    2.2639 H   0  0  0  0  0  0  0  0  0  0  0  0
    2.1481    3.0194    2.5986 H   0  0  0  0  0  0  0  0  0  0  0  0
    3.0872    2.9696    1.0632 H   0  0  0  0  0  0  0  0  0  0  0  0
    1.2943    2.8118    1.0369 H   0  0  0  0  0  0  0  0  0  0  0  0
   -3.6261    1.5081   -1.8569 H   0  0  0  0  0  0  0  0  0  0  0  0
   -4.6582    3.7781   -1.6971 H   0  0  0  0  0  0  0  0  0  0  0  0
   -4.6999    4.9904    0.4995 H   0  0  0  0  0  0  0  0  0  0  0  0
   -3.6901    3.9221    2.5318 H   0  0  0  0  0  0  0  0  0  0  0  0
   -2.6410    1.6667    2.3754 H   0  0  0  0  0  0  0  0  0  0  0  0
   -5.1759   -0.6613    0.1262 H   0  0  0  0  0  0  0  0  0  0  0  0
   -6.6758   -2.0873   -1.2770 H   0  0  0  0  0  0  0  0  0  0  0  0
   -5.7344   -3.3689   -3.2157 H   0  0  0  0  0  0  0  0  0  0  0  0
   -3.2903   -3.2153   -3.7509 H   0  0  0  0  0  0  0  0  0  0  0  0
   -1.7810   -1.7705   -2.3479 H   0  0  0  0  0  0  0  0  0  0  0  0
    5.1763    0.6597    0.1241 H   0  0  0  0  0  0  0  0  0  0  0  0
    6.6758    2.0853   -1.2798 H   0  0  0  0  0  0  0  0  0  0  0  0
    5.7337    3.3679   -3.2175 H   0  0  0  0  0  0  0  0  0  0  0  0
    3.2892    3.2154   -3.7511 H   0  0  0  0  0  0  0  0  0  0  0  0
    1.7802    1.7708   -2.3475 H   0  0  0  0  0  0  0  0  0  0  0  0
    3.6248   -1.5099   -1.8562 H   0  0  0  0  0  0  0  0  0  0  0  0
    4.6570   -3.7798   -1.6951 H   0  0  0  0  0  0  0  0  0  0  0  0
    4.6998   -4.9902    0.5026 H   0  0  0  0  0  0  0  0  0  0  0  0
    3.6911   -3.9200    2.5345 H   0  0  0  0  0  0  0  0  0  0  0  0
    2.6421   -1.6647    2.3768 H   0  0  0  0  0  0  0  0  0  0  0  0
  1 13  1  0  0  0  0
  1  9  1  0  0  0  0
  2 31  1  0  0  0  0
  2 11  1  0  0  0  0
  3  4  2  0  0  0  0
  3  8  1  0  0  0  0
  4  5  1  0  0  0  0
  5 37  1  0  0  0  0
  5  6  2  0  0  0  0
  6 38  1  0  0  0  0
  7 39  1  0  0  0  0
  7  6  1  0  0  0  0
  8  7  2  0  0  0  0
  9 40  1  1  0  0  0
  9  8  1  0  0  0  0
 10  9  1  0  0  0  0
 10 42  1  0  0  0  0
 11 44  1  1  0  0  0
 11  4  1  0  0  0  0
 12 11  1  0  0  0  0
 12 45  1  0  0  0  0
 13 18  1  0  0  0  0
 14 15  1  0  0  0  0
 14 13  2  0  0  0  0
 15 16  2  0  0  0  0
 16 50  1  0  0  0  0
 16 17  1  0  0  0  0
 17 51  1  0  0  0  0
 18 17  2  0  0  0  0
 18 52  1  0  0  0  0
 19 20  1  0  0  0  0
 19  1  1  0  0  0  0
 20 53  1  0  0  0  0
 21 54  1  0  0  0  0
 21 20  2  0  0  0  0
 22 21  1  0  0  0  0
 23 22  2  0  0  0  0
 23 24  1  0  0  0  0
 24 19  2  0  0  0  0
 25 26  1  0  0  0  0
 25  2  1  0  0  0  0
 26 58  1  0  0  0  0
 27 59  1  0  0  0  0
 27 26  2  0  0  0  0
 28 27  1  0  0  0  0
 29 28  2  0  0  0  0
 29 30  1  0  0  0  0
 30 25  2  0  0  0  0
 31 36  1  0  0  0  0
 32 33  1  0  0  0  0
 32 31  2  0  0  0  0
 33 34  2  0  0  0  0
 34 65  1  0  0  0  0
 34 35  1  0  0  0  0
 35 66  1  0  0  0  0
 36 35  2  0  0  0  0
 36 67  1  0  0  0  0
 41 10  1  0  0  0  0
 43 10  1  0  0  0  0
 46 12  1  0  0  0  0
 47 12  1  0  0  0  0
 48 14  1  0  0  0  0
 49 15  1  0  0  0  0
 55 22  1  0  0  0  0
 56 23  1  0  0  0  0
 57 24  1  0  0  0  0
 60 28  1  0  0  0  0
 61 29  1  0  0  0  0
 62 30  1  0  0  0  0
 63 32  1  0  0  0  0
 64 33  1  0  0  0  0
M  END
