1,2,3
q = -1.0, confidence = 0.0

 67 71  0  0  1  0  0  0  0  0999 V2000
   -2.2991    0.1738    0.0911 P   0  0  0  0  0  0  0  0  0  0  0  0
    2.2395   -0.1010   -0.2235 P   0  0  0  0  0  0  0  0  0  0  0  0
   -0.0051    1.5153   -0.9658 C   0  0  0  0  0  3  0  0  0  0  0  0
    1.1448    1.9001   -1.7201 C   0  0  0  0  0  0  0  0  0  0  0  0
    1.1377    3.1025   -2.4522 C   0  0  0  0  0  0  0  0  0  0  0  0
    0.0019    3.9256   -2.4780 C   0  0  0  0  0  0  0  0  0  0  0  0
   -1.1365    3.5594   -1.7475 C   0  0  0  0  0  0  0  0  0  0  0  0
   -1.1435    2.3743   -0.9876 C   0  0  0  0  0  0  0  0  0  0  0  0
   -2.3449    2.0342   -0.1213 C   0  0  2  0  0  0  0  0  0  0  0  0
   -2.2597    2.7180    1.2548 C   0  0  0  0  0  0  0  0  0  0  0  0
    2.3614    0.9809   -1.7507 C   0  0  1  0  0  0  0  0  0  0  0  0
    3.7154    1.6721   -1.9272 C   0  0  0  0  0  0  0  0  0  0  0  0
   -3.4377   -0.2220    1.4670 C   0  0  0  0  0  0  0  0  0  0  0  0
   -4.8079    0.1017    1.3555 C   0  0  0  0  0  0  0  0  0  0  0  0
   -5.6729   -0.1382    2.4311 C   0  0  0  0  0  0  0  0  0  0  0  0
   -5.1774   -0.7091    3.6168 C   0  0  0  0  0  0  0  0  0  0  0  0
   -3.8190   -1.0433    3.7217 C   0  0  0  0  0  0  0  0  0  0  0  0
   -2.9420   -0.8007    2.6512 C   0  0  0  0  0  0  0  0  0  0  0  0
   -3.1103   -0.5438   -1.3857 C   0  0  0  0  0  0  0  0  0  0  0  0
   -3.1236    0.1329   -2.6228 C   0  0  0  0  0  0  0  0  0  0  0  0
   -3.7002   -0.4765   -3.7475 C   0  0  0  0  0  0  0  0  0  0  0  0
   -4.2552   -1.7622   -3.6509 C   0  0  0  0  0  0  0  0  0  0  0  0
   -4.2291   -2.4437   -2.4231 C   0  0  0  0  0  0  0  0  0  0  0  0
   -3.6580   -1.8409   -1.2939 C   0  0  0  0  0  0  0  0  0  0  0  0
    3.1546    0.8104    1.0779 C   0  0  0  0  0  0  0  0  0  0  0  0
    2.4806    1.8460    1.7594 C   0  0  0  0  0  0  0  0  0  0  0  0
    3.1615    2.6166    2.7123 C   0  0  0  0  0  0  0  0  0  0  0  0
    4.5107    2.3527    3.0003 C   0  0  0  0  0  0  0  0  0  0  0  0
    5.1805    1.3163    2.3306 C   0  0  0  0  0  0  0  0  0  0  0  0
    4.5081    0.5470    1.3689 C   0  0  0  0  0  0  0  0  0  0  0  0
    3.2124   -1.6168   -0.5237 C   0  0  0  0  0  0  0  0  0  0  0  0
    3.2269   -2.5861    0.5051 C   0  0  0  0  0  0  0  0  0  0  0  0
    3.9421   -3.7786    0.3317 C   0  0  0  0  0  0  0  0  0  0  0  0
    4.6387   -4.0220   -0.8634 C   0  0  0  0  0  0  0  0  0  0  0  0
    4.6115   -3.0700   -1.8939 C   0  0  0  0  0  0  0  0  0  0  0  0
    3.9001   -1.8714   -1.7281 C   0  0  0  0  0  0  0  0  0  0  0  0
    2.0280    3.4006   -3.0262 H   0  0  0  0  0  0  0  0  0  0  0  0
    0.0084    4.8553   -3.0666 H   0  0  0  0  0  0  0  0  0  0  0  0
   -2.0288    4.2066   -1.7551 H   0  0  0  0  0  0  0  0  0  0  0  0
   -3.2927    2.3270   -0.6228 H   0  0  0  0  0  0  0  0  0  0  0  0
   -2.1727    3.8147    1.1182 H   0  0  0  0  0  0  0  0  0  0  0  0
   -3.1512    2.5075    1.8777 H   0  0  0  0  0  0  0  0  0  0  0  0
   -1.3605    2.3708    1.8041 H   0  0  0  0  0  0  0  0  0  0  0  0
    2.2033    0.2461   -2.5745 H   0  0  0  0  0  0  0  0  0  0  0  0
    4.5558    0.9579   -1.8234 H   0  0  0  0  0  0  0  0  0  0  0  0
    3.7999    2.1374   -2.9299 H   0  0  0  0  0  0  0  0  0  0  0  0
    3.8532    2.4659   -1.1669 H   0  0  0  0  0  0  0  0  0  0  0  0
   -5.1977    0.5373    0.4217 H   0  0  0  0  0  0  0  0  0  0  0  0
   -6.7400    0.1175    2.3440 H   0  0  0  0  0  0  0  0  0  0  0  0
   -5.8592   -0.9002    4.4598 H   0  0  0  0  0  0  0  0  0  0  0  0
   -3.4332   -1.5039    4.6439 H   0  0  0  0  0  0  0  0  0  0  0  0
   -1.8804   -1.0947    2.7052 H   0  0  0  0  0  0  0  0  0  0  0  0
   -2.6692    1.1307   -2.7143 H   0  0  0  0  0  0  0  0  0  0  0  0
   -3.7110    0.0592   -4.7090 H   0  0  0  0  0  0  0  0  0  0  0  0
   -4.7048   -2.2372   -4.5361 H   0  0  0  0  0  0  0  0  0  0  0  0
   -4.6548   -3.4555   -2.3430 H   0  0  0  0  0  0  0  0  0  0  0  0
   -3.6315   -2.3790   -0.3340 H   0  0  0  0  0  0  0  0  0  0  0  0
    2.6381   -2.4176    1.4195 H   0  0  0  0  0  0  0  0  0  0  0  0
    3.9423   -4.5311    1.1347 H   0  0  0  0  0  0  0  0  0  0  0  0
    5.1971   -4.9612   -0.9958 H   0  0  0  0  0  0  0  0  0  0  0  0
    5.1470   -3.2587   -2.8367 H   0  0  0  0  0  0  0  0  0  0  0  0
    3.8863   -1.1393   -2.5480 H   0  0  0  0  0  0  0  0  0  0  0  0
    1.4176    2.0287    1.5377 H   0  0  0  0  0  0  0  0  0  0  0  0
    2.6307    3.4224    3.2417 H   0  0  0  0  0  0  0  0  0  0  0  0
    5.0406    2.9528    3.7557 H   0  0  0  0  0  0  0  0  0  0  0  0
    6.2360    1.1028    2.5585 H   0  0  0  0  0  0  0  0  0  0  0  0
    5.0333   -0.2670    0.8467 H   0  0  0  0  0  0  0  0  0  0  0  0
  1 13  1  0  0  0  0
  2 25  1  0  0  0  0
  4  3  2  0  0  0  0
  5  4  1  0  0  0  0
  6  5  2  0  0  0  0
  6  7  1  0  0  0  0
  7  8  2  0  0  0  0
  8  3  1  0  0  0  0
  8  9  1  0  0  0  0
  9 40  1  6  0  0  0
  9  1  1  0  0  0  0
  9 10  1  0  0  0  0
 10 43  1  0  0  0  0
 10 42  1  0  0  0  0
 11 44  1  6  0  0  0
 11  4  1  0  0  0  0
 11  2  1  0  0  0  0
 12 45  1  0  0  0  0
 12 11  1  0  0  0  0
 12 47  1  0  0  0  0
 13 18  1  0  0  0  0
 14 13  2  0  0  0  0
 14 15  1  0  0  0  0
 15 16  2  0  0  0  0
 16 17  1  0  0  0  0
 16 50  1  0  0  0  0
 17 51  1  0  0  0  0
 18 52  1  0  0  0  0
 18 17  2  0  0  0  0
 19 24  1  0  0  0  0
 19  1  1  0  0  0  0
 20 19  2  0  0  0  0
 21 22  2  0  0  0  0
 21 20  1  0  0  0  0
 22 23  1  0  0  0  0
 23 56  1  0  0  0  0
 23 24  2  0  0  0  0
 24 57  1  0  0  0  0
 25 30  2  0  0  0  0
 25 26  1  0  0  0  0
 26 27  2  0  0  0  0
 27 28  1  0  0  0  0
 27 64  1  0  0  0  0
 28 65  1  0  0  0  0
 29 66  1  0  0  0  0
 29 28  2  0  0  0  0
 30 29  1  0  0  0  0
 31  2  1  0  0  0  0
 31 32  1  0  0  0  0
 32 58  1  0  0  0  0
 33 32  2  0  0  0  0
 33 59  1  0  0  0  0
 34 33  1  0  0  0  0
 35 36  1  0  0  0  0
 35 34  2  0  0  0  0
 36 31  2  0  0  0  0
 37  5  1  0  0  0  0
 38  6  1  0  0  0  0
 39  7  1  0  0  0  0
 41 10  1  0  0  0  0
 46 12  1  0  0  0  0
 48 14  1  0  0  0  0
 49 15  1  0  0  0  0
 53 20  1  0  0  0  0
 54 21  1  0  0  0  0
 55 22  1  0  0  0  0
 60 34  1  0  0  0  0
 61 35  1  0  0  0  0
 62 36  1  0  0  0  0
 63 26  1  0  0  0  0
 67 30  1  0  0  0  0
M  END
