1,2,7
q = -1.0, confidence = 0.008

 67 67  0  0  0  0  0  0  0  0999 V2000
   -2.2996   -0.0117   -0.0513 P   0  0  0  0  0  0  0  0  0  0  0  0
    2.2996   -0.0117   -0.0515 P   0  0  0  0  0  0  0  0  0  0  0  0
   -2.4075    1.7086   -0.0315 N   0  0  0  0  0  0  0  0  0  0  0  0
   -3.2957    2.2102   -0.0048 H   0  0  0  0  0  0  0  0  0  0  0  0
    2.4076    1.7086   -0.0328 N   0  0  0  0  0  0  0  0  0  0  0  0
    3.2957    2.2101   -0.0044 H   0  0  0  0  0  0  0  0  0  0  0  0
    0.0000    1.7251    0.0006 C   0  0  0  0  0  3  0  0  0  0  0  0
   -1.2161    2.4556    0.0294 C   0  0  0  0  0  0  0  0  0  0  0  0
   -1.2221    3.8640    0.1184 C   0  0  0  0  0  0  0  0  0  0  0  0
   -2.1752    4.4144    0.1507 H   0  0  0  0  0  0  0  0  0  0  0  0
    0.0001    4.5528    0.1619 C   0  0  0  0  0  0  0  0  0  0  0  0
    0.0001    5.6512    0.2306 H   0  0  0  0  0  0  0  0  0  0  0  0
    1.2222    3.8640    0.1179 C   0  0  0  0  0  0  0  0  0  0  0  0
    2.1753    4.4144    0.1496 H   0  0  0  0  0  0  0  0  0  0  0  0
    1.2162    2.4555    0.0289 C   0  0  0  0  0  0  0  0  0  0  0  0
   -3.2742   -0.5518   -1.5917 C   0  0  0  0  0  0  0  0  0  0  0  0
   -2.6524    0.2284   -2.7660 C   0  0  0  0  0  0  0  0  0  0  0  0
   -2.7274    1.3240   -2.6229 H   0  0  0  0  0  0  0  0  0  0  0  0
   -3.1840   -0.0425   -3.7024 H   0  0  0  0  0  0  0  0  0  0  0  0
   -1.5823   -0.0267   -2.8948 H   0  0  0  0  0  0  0  0  0  0  0  0
   -4.7733   -0.2284   -1.5044 C   0  0  0  0  0  0  0  0  0  0  0  0
   -5.2853   -0.8199   -0.7212 H   0  0  0  0  0  0  0  0  0  0  0  0
   -5.2588   -0.4742   -2.4730 H   0  0  0  0  0  0  0  0  0  0  0  0
   -4.9607    0.8483   -1.3119 H   0  0  0  0  0  0  0  0  0  0  0  0
   -3.0472   -2.0593   -1.8120 C   0  0  0  0  0  0  0  0  0  0  0  0
   -3.4102   -2.3376   -2.8242 H   0  0  0  0  0  0  0  0  0  0  0  0
   -3.5954   -2.6789   -1.0788 H   0  0  0  0  0  0  0  0  0  0  0  0
   -1.9738   -2.3252   -1.7344 H   0  0  0  0  0  0  0  0  0  0  0  0
   -3.1452   -0.5295    1.5757 C   0  0  0  0  0  0  0  0  0  0  0  0
   -4.3987    0.3051    1.8818 C   0  0  0  0  0  0  0  0  0  0  0  0
   -4.1629    1.3866    1.9404 H   0  0  0  0  0  0  0  0  0  0  0  0
   -4.7993    0.0043    2.8733 H   0  0  0  0  0  0  0  0  0  0  0  0
   -5.2074    0.1577    1.1417 H   0  0  0  0  0  0  0  0  0  0  0  0
   -3.4645   -2.0324    1.5621 C   0  0  0  0  0  0  0  0  0  0  0  0
   -3.7516   -2.3506    2.5872 H   0  0  0  0  0  0  0  0  0  0  0  0
   -2.5807   -2.6284    1.2538 H   0  0  0  0  0  0  0  0  0  0  0  0
   -4.3153   -2.2726    0.8945 H   0  0  0  0  0  0  0  0  0  0  0  0
   -2.0755   -0.2429    2.6508 C   0  0  0  0  0  0  0  0  0  0  0  0
   -2.5110   -0.4144    3.6583 H   0  0  0  0  0  0  0  0  0  0  0  0
   -1.7129    0.8041    2.6058 H   0  0  0  0  0  0  0  0  0  0  0  0
   -1.2080   -0.9226    2.5346 H   0  0  0  0  0  0  0  0  0  0  0  0
    3.2742   -0.5526   -1.5916 C   0  0  0  0  0  0  0  0  0  0  0  0
    2.6520    0.2265   -2.7664 C   0  0  0  0  0  0  0  0  0  0  0  0
    1.5821   -0.0294   -2.8950 H   0  0  0  0  0  0  0  0  0  0  0  0
    3.1838   -0.0446   -3.7025 H   0  0  0  0  0  0  0  0  0  0  0  0
    2.7263    1.3222   -2.6238 H   0  0  0  0  0  0  0  0  0  0  0  0
    3.0478   -2.0604   -1.8109 C   0  0  0  0  0  0  0  0  0  0  0  0
    3.4105   -2.3392   -2.8230 H   0  0  0  0  0  0  0  0  0  0  0  0
    1.9745   -2.3267   -1.7326 H   0  0  0  0  0  0  0  0  0  0  0  0
    3.5966   -2.6793   -1.0775 H   0  0  0  0  0  0  0  0  0  0  0  0
    4.7732   -0.2286   -1.5045 C   0  0  0  0  0  0  0  0  0  0  0  0
    5.2587   -0.4749   -2.4730 H   0  0  0  0  0  0  0  0  0  0  0  0
    5.2855   -0.8194   -0.7211 H   0  0  0  0  0  0  0  0  0  0  0  0
    4.9601    0.8483   -1.3128 H   0  0  0  0  0  0  0  0  0  0  0  0
    3.1451   -0.5286    1.5759 C   0  0  0  0  0  0  0  0  0  0  0  0
    2.0754   -0.2415    2.6507 C   0  0  0  0  0  0  0  0  0  0  0  0
    1.7129    0.8056    2.6053 H   0  0  0  0  0  0  0  0  0  0  0  0
    2.5108   -0.4125    3.6584 H   0  0  0  0  0  0  0  0  0  0  0  0
    1.2077   -0.9211    2.5348 H   0  0  0  0  0  0  0  0  0  0  0  0
    3.4643   -2.0316    1.5631 C   0  0  0  0  0  0  0  0  0  0  0  0
    3.7512   -2.3493    2.5884 H   0  0  0  0  0  0  0  0  0  0  0  0
    4.3152   -2.2722    0.8957 H   0  0  0  0  0  0  0  0  0  0  0  0
    2.5806   -2.6277    1.2548 H   0  0  0  0  0  0  0  0  0  0  0  0
    4.3986    0.3060    1.8816 C   0  0  0  0  0  0  0  0  0  0  0  0
    5.2073    0.1583    1.1415 H   0  0  0  0  0  0  0  0  0  0  0  0
    4.7993    0.0055    2.8731 H   0  0  0  0  0  0  0  0  0  0  0  0
    4.1630    1.3875    1.9399 H   0  0  0  0  0  0  0  0  0  0  0  0
  1  3  1  0  0  0  0
  1 29  1  0  0  0  0
  2  5  1  0  0  0  0
  2 55  1  0  0  0  0
  3  4  1  0  0  0  0
  3  8  1  0  0  0  0
  5  6  1  0  0  0  0
  5 15  1  0  0  0  0
  7 15  2  0  0  0  0
  7  8  1  0  0  0  0
  8  9  2  0  0  0  0
  9 10  1  0  0  0  0
  9 11  1  0  0  0  0
 11 12  1  0  0  0  0
 13 14  1  0  0  0  0
 13 11  2  0  0  0  0
 15 13  1  0  0  0  0
 16 21  1  0  0  0  0
 16  1  1  0  0  0  0
 17 18  1  0  0  0  0
 17 16  1  0  0  0  0
 19 17  1  0  0  0  0
 20 17  1  0  0  0  0
 21 24  1  0  0  0  0
 21 22  1  0  0  0  0
 23 21  1  0  0  0  0
 25 28  1  0  0  0  0
 25 16  1  0  0  0  0
 25 27  1  0  0  0  0
 26 25  1  0  0  0  0
 29 30  1  0  0  0  0
 29 38  1  0  0  0  0
 30 31  1  0  0  0  0
 30 32  1  0  0  0  0
 33 30  1  0  0  0  0
 34 29  1  0  0  0  0
 34 35  1  0  0  0  0
 36 34  1  0  0  0  0
 37 34  1  0  0  0  0
 38 39  1  0  0  0  0
 40 38  1  0  0  0  0
 41 38  1  0  0  0  0
 42 51  1  0  0  0  0
 42  2  1  0  0  0  0
 43 46  1  0  0  0  0
 43 42  1  0  0  0  0
 44 43  1  0  0  0  0
 45 43  1  0  0  0  0
 47 49  1  0  0  0  0
 47 42  1  0  0  0  0
 47 50  1  0  0  0  0
 48 47  1  0  0  0  0
 51 54  1  0  0  0  0
 51 53  1  0  0  0  0
 52 51  1  0  0  0  0
 55 64  1  0  0  0  0
 55 56  1  0  0  0  0
 56 58  1  0  0  0  0
 57 56  1  0  0  0  0
 59 56  1  0  0  0  0
 60 55  1  0  0  0  0
 60 61  1  0  0  0  0
 62 60  1  0  0  0  0
 63 60  1  0  0  0  0
 64 67  1  0  0  0  0
 64 66  1  0  0  0  0
 65 64  1  0  0  0  0
M  END
