1,3,5
q = -1.0, confidence = 0.012

 71 71  0  0  1  0  0  0  0  0999 V2000
   -2.1074   -0.3109    0.0263 P   0  0  0  0  0  0  0  0  0  0  0  0
   -2.4219    1.3600   -0.0883 O   0  0  0  0  0  0  0  0  0  0  0  0
    0.0088    1.4011    0.0558 C   0  0  0  0  0  3  0  0  0  0  0  0
    0.0296    1.6009    1.1598 H   0  0  0  0  0  0  0  0  0  0  0  0
    2.1074   -0.3202    0.0187 P   0  0  0  0  0  0  0  0  0  0  0  0
    2.4338    1.3431   -0.1556 O   0  0  0  0  0  0  0  0  0  0  0  0
   -1.2408    2.0867   -0.4837 C   0  0  2  0  0  0  0  0  0  0  0  0
   -1.1943    2.0991   -1.6002 H   0  0  0  0  0  0  0  0  0  0  0  0
   -1.2814    3.5379   -0.0023 C   0  0  0  0  0  0  0  0  0  0  0  0
   -1.3677    3.5360    1.1062 H   0  0  0  0  0  0  0  0  0  0  0  0
   -2.1713    4.0687   -0.4013 H   0  0  0  0  0  0  0  0  0  0  0  0
    0.0102    4.2595   -0.4447 C   0  0  0  0  0  0  0  0  0  0  0  0
   -0.0105    4.3716   -1.5518 H   0  0  0  0  0  0  0  0  0  0  0  0
    0.0223    5.2910   -0.0369 H   0  0  0  0  0  0  0  0  0  0  0  0
    1.3120    3.5282   -0.0509 C   0  0  0  0  0  0  0  0  0  0  0  0
    2.1905    4.0524   -0.4825 H   0  0  0  0  0  0  0  0  0  0  0  0
    1.4383    3.5287    1.0538 H   0  0  0  0  0  0  0  0  0  0  0  0
    1.2475    2.0743   -0.5239 C   0  0  2  0  0  0  0  0  0  0  0  0
    1.1724    2.0802   -1.6402 H   0  0  0  0  0  0  0  0  0  0  0  0
   -2.9844   -0.6894    1.6622 C   0  0  0  0  0  0  0  0  0  0  0  0
   -3.2306   -2.2010    1.7796 C   0  0  0  0  0  0  0  0  0  0  0  0
   -2.3063   -2.7750    1.5637 H   0  0  0  0  0  0  0  0  0  0  0  0
   -4.0316   -2.5489    1.0980 H   0  0  0  0  0  0  0  0  0  0  0  0
   -3.5497   -2.4427    2.8158 H   0  0  0  0  0  0  0  0  0  0  0  0
   -4.2807    0.1138    1.8469 C   0  0  0  0  0  0  0  0  0  0  0  0
   -4.1044    1.1925    1.6730 H   0  0  0  0  0  0  0  0  0  0  0  0
   -4.6467   -0.0180    2.8878 H   0  0  0  0  0  0  0  0  0  0  0  0
   -5.0857   -0.2192    1.1662 H   0  0  0  0  0  0  0  0  0  0  0  0
   -1.9627   -0.2627    2.7367 C   0  0  0  0  0  0  0  0  0  0  0  0
   -1.7113    0.8137    2.6533 H   0  0  0  0  0  0  0  0  0  0  0  0
   -1.0236   -0.8470    2.6465 H   0  0  0  0  0  0  0  0  0  0  0  0
   -2.3910   -0.4384    3.7467 H   0  0  0  0  0  0  0  0  0  0  0  0
   -3.0365   -0.9893   -1.4825 C   0  0  0  0  0  0  0  0  0  0  0  0
   -2.7311   -2.4902   -1.6242 C   0  0  0  0  0  0  0  0  0  0  0  0
   -1.6393   -2.6748   -1.5752 H   0  0  0  0  0  0  0  0  0  0  0  0
   -3.1128   -2.8539   -2.6022 H   0  0  0  0  0  0  0  0  0  0  0  0
   -3.2093   -3.0954   -0.8312 H   0  0  0  0  0  0  0  0  0  0  0  0
   -2.4175   -0.2387   -2.6799 C   0  0  0  0  0  0  0  0  0  0  0  0
   -1.3122   -0.3385   -2.6957 H   0  0  0  0  0  0  0  0  0  0  0  0
   -2.6698    0.8389   -2.6556 H   0  0  0  0  0  0  0  0  0  0  0  0
   -2.8149   -0.6644   -3.6255 H   0  0  0  0  0  0  0  0  0  0  0  0
   -4.5461   -0.7203   -1.4411 C   0  0  0  0  0  0  0  0  0  0  0  0
   -4.7575    0.3499   -1.2466 H   0  0  0  0  0  0  0  0  0  0  0  0
   -5.0576   -1.3282   -0.6695 H   0  0  0  0  0  0  0  0  0  0  0  0
   -4.9977   -0.9851   -2.4215 H   0  0  0  0  0  0  0  0  0  0  0  0
    2.9496   -1.0468   -1.5199 C   0  0  0  0  0  0  0  0  0  0  0  0
    4.2282   -0.2922   -1.9093 C   0  0  0  0  0  0  0  0  0  0  0  0
    4.0459    0.7986   -1.9586 H   0  0  0  0  0  0  0  0  0  0  0  0
    4.5702   -0.6373   -2.9086 H   0  0  0  0  0  0  0  0  0  0  0  0
    5.0541   -0.4673   -1.1949 H   0  0  0  0  0  0  0  0  0  0  0  0
    1.8880   -0.8782   -2.6282 C   0  0  0  0  0  0  0  0  0  0  0  0
    1.6331    0.1869   -2.8002 H   0  0  0  0  0  0  0  0  0  0  0  0
    0.9557   -1.4169   -2.3588 H   0  0  0  0  0  0  0  0  0  0  0  0
    2.2753   -1.2941   -3.5834 H   0  0  0  0  0  0  0  0  0  0  0  0
    3.2139   -2.5460   -1.3169 C   0  0  0  0  0  0  0  0  0  0  0  0
    2.3056   -3.0653   -0.9487 H   0  0  0  0  0  0  0  0  0  0  0  0
    4.0431   -2.7326   -0.6065 H   0  0  0  0  0  0  0  0  0  0  0  0
    3.5000   -3.0044   -2.2877 H   0  0  0  0  0  0  0  0  0  0  0  0
    3.0589   -0.6535    1.6219 C   0  0  0  0  0  0  0  0  0  0  0  0
    2.8258   -2.1093    2.0604 C   0  0  0  0  0  0  0  0  0  0  0  0
    1.7443   -2.3525    2.0638 H   0  0  0  0  0  0  0  0  0  0  0  0
    3.2233   -2.2502    3.0881 H   0  0  0  0  0  0  0  0  0  0  0  0
    3.3351   -2.8379    1.4025 H   0  0  0  0  0  0  0  0  0  0  0  0
    4.5549   -0.3301    1.5059 C   0  0  0  0  0  0  0  0  0  0  0  0
    4.7154    0.6911    1.1076 H   0  0  0  0  0  0  0  0  0  0  0  0
    5.0875   -1.0516    0.8558 H   0  0  0  0  0  0  0  0  0  0  0  0
    5.0249   -0.3835    2.5115 H   0  0  0  0  0  0  0  0  0  0  0  0
    2.4060    0.2857    2.6568 C   0  0  0  0  0  0  0  0  0  0  0  0
    2.5398    1.3487    2.3793 H   0  0  0  0  0  0  0  0  0  0  0  0
    2.8733    0.1170    3.6499 H   0  0  0  0  0  0  0  0  0  0  0  0
    1.3188    0.0870    2.7503 H   0  0  0  0  0  0  0  0  0  0  0  0
  1 20  1  0  0  0  0
  2  1  1  0  0  0  0
  3  4  1  0  0  0  0
  5 59  1  0  0  0  0
  6  5  1  0  0  0  0
  7  8  1  6  0  0  0
  7  2  1  0  0  0  0
  7  9  1  0  0  0  0
  7  3  1  0  0  0  0
  9 10  1  0  0  0  0
 11  9  1  0  0  0  0
 12 15  1  0  0  0  0
 12 14  1  0  0  0  0
 12  9  1  0  0  0  0
 13 12  1  0  0  0  0
 15 17  1  0  0  0  0
 16 15  1  0  0  0  0
 18 19  1  6  0  0  0
 18  6  1  0  0  0  0
 18 15  1  0  0  0  0
 18  3  1  0  0  0  0
 20 21  1  0  0  0  0
 20 25  1  0  0  0  0
 20 29  1  0  0  0  0
 21 24  1  0  0  0  0
 22 21  1  0  0  0  0
 23 21  1  0  0  0  0
 25 27  1  0  0  0  0
 26 25  1  0  0  0  0
 28 25  1  0  0  0  0
 29 32  1  0  0  0  0
 30 29  1  0  0  0  0
 31 29  1  0  0  0  0
 33 42  1  0  0  0  0
 33  1  1  0  0  0  0
 34 35  1  0  0  0  0
 34 33  1  0  0  0  0
 34 37  1  0  0  0  0
 36 34  1  0  0  0  0
 38 40  1  0  0  0  0
 38 33  1  0  0  0  0
 39 38  1  0  0  0  0
 41 38  1  0  0  0  0
 42 43  1  0  0  0  0
 42 44  1  0  0  0  0
 45 42  1  0  0  0  0
 46 55  1  0  0  0  0
 46  5  1  0  0  0  0
 47 46  1  0  0  0  0
 47 50  1  0  0  0  0
 48 47  1  0  0  0  0
 49 47  1  0  0  0  0
 51 53  1  0  0  0  0
 51 46  1  0  0  0  0
 52 51  1  0  0  0  0
 54 51  1  0  0  0  0
 55 56  1  0  0  0  0
 55 57  1  0  0  0  0
 58 55  1  0  0  0  0
 59 60  1  0  0  0  0
 59 68  1  0  0  0  0
 60 61  1  0  0  0  0
 60 62  1  0  0  0  0
 63 60  1  0  0  0  0
 64 59  1  0  0  0  0
 64 67  1  0  0  0  0
 65 64  1  0  0  0  0
 66 64  1  0  0  0  0
 68 71  1  0  0  0  0
 68 70  1  0  0  0  0
 69 68  1  0  0  0  0
M  END
