2,3,25
q = -1.0

 40 39  0  0  0  0  0  0  0  0999 V2000
    3.1375    0.0762   -0.7265 N   0  0  0  0  0  0  0  0  0  0  0  0
    1.2557    1.8879   -0.0910 P   0  0  0  0  0  0  0  0  0  0  0  0
    1.2707   -1.9123    0.0506 P   0  0  0  0  0  0  0  0  0  0  0  0
    0.7329    3.3863   -1.0937 C   0  0  0  0  0  0  0  0  0  0  0  0
    1.6060    4.0593   -1.2368 H   0  0  0  0  0  0  0  0  0  0  0  0
    0.4707    2.9937   -2.0993 H   0  0  0  0  0  0  0  0  0  0  0  0
   -0.4444    4.1429   -0.4783 C   0  0  0  0  0  0  0  0  0  0  0  0
   -0.8200    4.9368   -1.1563 H   0  0  0  0  0  0  0  0  0  0  0  0
   -0.1627    4.6317    0.4767 H   0  0  0  0  0  0  0  0  0  0  0  0
   -1.2884    3.4598   -0.2581 H   0  0  0  0  0  0  0  0  0  0  0  0
    1.8089    2.7128    1.5026 C   0  0  0  0  0  0  0  0  0  0  0  0
    0.8946    2.8553    2.1175 H   0  0  0  0  0  0  0  0  0  0  0  0
    2.3866    1.9157    2.0150 H   0  0  0  0  0  0  0  0  0  0  0  0
    2.6192    4.0040    1.4108 C   0  0  0  0  0  0  0  0  0  0  0  0
    2.9673    4.3267    2.4142 H   0  0  0  0  0  0  0  0  0  0  0  0
    2.0316    4.8423    0.9852 H   0  0  0  0  0  0  0  0  0  0  0  0
    3.5226    3.8794    0.7786 H   0  0  0  0  0  0  0  0  0  0  0  0
    2.9089    1.4988   -0.9146 C   0  0  0  0  0  0  0  0  0  0  0  0
    2.8058    1.7791   -2.0011 H   0  0  0  0  0  0  0  0  0  0  0  0
    3.7523    2.0999   -0.5068 H   0  0  0  0  0  0  0  0  0  0  0  0
    4.3235   -0.4013   -1.4120 C   0  0  0  0  0  0  0  0  0  0  0  0
    5.2237    0.1547   -1.0749 H   0  0  0  0  0  0  0  0  0  0  0  0
    4.2575   -0.2956   -2.5297 H   0  0  0  0  0  0  0  0  0  0  0  0
    4.4782   -1.4757   -1.1863 H   0  0  0  0  0  0  0  0  0  0  0  0
    1.9281   -0.6582   -1.0423 C   0  0  0  0  0  3  0  0  0  0  0  0
    1.8106   -0.8692   -2.1328 H   0  0  0  0  0  0  0  0  0  0  0  0
    2.5011   -2.3776    1.3648 C   0  0  0  0  0  0  0  0  0  0  0  0
    3.0239   -1.4113    1.5299 H   0  0  0  0  0  0  0  0  0  0  0  0
    1.9402   -2.5956    2.2985 H   0  0  0  0  0  0  0  0  0  0  0  0
    3.4878   -3.4961    1.0350 C   0  0  0  0  0  0  0  0  0  0  0  0
    4.2450   -3.6038    1.8392 H   0  0  0  0  0  0  0  0  0  0  0  0
    4.0346   -3.2899    0.0921 H   0  0  0  0  0  0  0  0  0  0  0  0
    2.9894   -4.4804    0.9229 H   0  0  0  0  0  0  0  0  0  0  0  0
    0.8920   -3.5084   -0.8408 C   0  0  0  0  0  0  0  0  0  0  0  0
    0.3498   -3.2099   -1.7623 H   0  0  0  0  0  0  0  0  0  0  0  0
    1.8392   -3.9872   -1.1664 H   0  0  0  0  0  0  0  0  0  0  0  0
    0.0448   -4.4674   -0.0020 C   0  0  0  0  0  0  0  0  0  0  0  0
   -0.2220   -5.3824   -0.5700 H   0  0  0  0  0  0  0  0  0  0  0  0
   -0.8994   -3.9836    0.3242 H   0  0  0  0  0  0  0  0  0  0  0  0
    0.5800   -4.7915    0.9146 H   0  0  0  0  0  0  0  0  0  0  0  0
  2 11  1  0  0  0  0
  3 27  1  0  0  0  0
  4  7  1  0  0  0  0
  4  2  1  0  0  0  0
  5  4  1  0  0  0  0
  6  4  1  0  0  0  0
  7 10  1  0  0  0  0
  7  9  1  0  0  0  0
  8  7  1  0  0  0  0
 11 13  1  0  0  0  0
 11 12  1  0  0  0  0
 14 11  1  0  0  0  0
 14 15  1  0  0  0  0
 16 14  1  0  0  0  0
 17 14  1  0  0  0  0
 18  1  1  0  0  0  0
 18 20  1  0  0  0  0
 18  2  1  0  0  0  0
 19 18  1  0  0  0  0
 21 24  1  0  0  0  0
 21 22  1  0  0  0  0
 21  1  1  0  0  0  0
 23 21  1  0  0  0  0
 25  1  1  0  0  0  0
 25  3  1  0  0  0  0
 26 25  1  0  0  0  0
 27 28  1  0  0  0  0
 27 29  1  0  0  0  0
 30 27  1  0  0  0  0
 30 31  1  0  0  0  0
 32 30  1  0  0  0  0
 33 30  1  0  0  0  0
 34 37  1  0  0  0  0
 34  3  1  0  0  0  0
 35 34  1  0  0  0  0
 36 34  1  0  0  0  0
 37 39  1  0  0  0  0
 37 40  1  0  0  0  0
 38 37  1  0  0  0  0
M  END
