1,3,4
q = -1.0

 67 67  0  0  0  0  0  0  0  0999 V2000
   -2.4114    0.0282    0.1822 P   0  0  0  0  0  0  0  0  0  0  0  0
   -2.3270    1.6407   -0.4485 N   0  0  0  0  0  0  0  0  0  0  0  0
    0.0433    1.4935    0.0761 C   0  0  0  0  0  3  0  0  0  0  0  0
    2.3771   -0.1168   -0.3025 P   0  0  0  0  0  0  0  0  0  0  0  0
    2.4338    1.3892    0.5642 N   0  0  0  0  0  0  0  0  0  0  0  0
    1.2680    2.1710    0.3257 C   0  0  0  0  0  0  0  0  0  0  0  0
    1.3618    3.5811    0.2554 C   0  0  0  0  0  0  0  0  0  0  0  0
    2.3170    4.0949    0.4275 H   0  0  0  0  0  0  0  0  0  0  0  0
    0.2254    4.3236   -0.0835 C   0  0  0  0  0  0  0  0  0  0  0  0
    0.2934    5.4207   -0.1457 H   0  0  0  0  0  0  0  0  0  0  0  0
   -0.9952    3.6952   -0.3537 C   0  0  0  0  0  0  0  0  0  0  0  0
   -1.8722    4.3053   -0.6066 H   0  0  0  0  0  0  0  0  0  0  0  0
   -1.0888    2.2850   -0.2637 C   0  0  0  0  0  0  0  0  0  0  0  0
   -3.4326    2.3145   -1.1204 C   0  0  0  0  0  0  0  0  0  0  0  0
   -3.6354    3.2906   -0.6235 H   0  0  0  0  0  0  0  0  0  0  0  0
   -4.3493    1.7176   -0.9612 H   0  0  0  0  0  0  0  0  0  0  0  0
   -3.1924    2.5116   -2.6188 C   0  0  0  0  0  0  0  0  0  0  0  0
   -4.0640    3.0052   -3.0946 H   0  0  0  0  0  0  0  0  0  0  0  0
   -3.0080    1.5385   -3.1151 H   0  0  0  0  0  0  0  0  0  0  0  0
   -2.2973    3.1392   -2.7964 H   0  0  0  0  0  0  0  0  0  0  0  0
    3.5960    1.9808    1.2196 C   0  0  0  0  0  0  0  0  0  0  0  0
    3.9668    2.8671    0.6517 H   0  0  0  0  0  0  0  0  0  0  0  0
    4.4249    1.2494    1.1864 H   0  0  0  0  0  0  0  0  0  0  0  0
    3.3125    2.3670    2.6729 C   0  0  0  0  0  0  0  0  0  0  0  0
    4.2239    2.7790    3.1511 H   0  0  0  0  0  0  0  0  0  0  0  0
    2.9690    1.4873    3.2520 H   0  0  0  0  0  0  0  0  0  0  0  0
    2.5151    3.1331    2.7332 H   0  0  0  0  0  0  0  0  0  0  0  0
   -3.6989   -0.8775   -0.8626 C   0  0  0  0  0  0  0  0  0  0  0  0
   -3.5599   -0.3913   -1.8505 H   0  0  0  0  0  0  0  0  0  0  0  0
   -5.1548   -0.7243   -0.4012 C   0  0  0  0  0  0  0  0  0  0  0  0
   -5.4815    0.3269   -0.2777 H   0  0  0  0  0  0  0  0  0  0  0  0
   -5.3374   -1.2468    0.5588 H   0  0  0  0  0  0  0  0  0  0  0  0
   -5.8235   -1.1876   -1.1557 H   0  0  0  0  0  0  0  0  0  0  0  0
   -3.3383   -2.3605   -1.0296 C   0  0  0  0  0  0  0  0  0  0  0  0
   -4.0644   -2.8352   -1.7214 H   0  0  0  0  0  0  0  0  0  0  0  0
   -3.3825   -2.9123   -0.0694 H   0  0  0  0  0  0  0  0  0  0  0  0
   -2.3262   -2.4753   -1.4595 H   0  0  0  0  0  0  0  0  0  0  0  0
   -3.2103    0.3129    1.8615 C   0  0  0  0  0  0  0  0  0  0  0  0
   -4.2242    0.6972    1.6136 H   0  0  0  0  0  0  0  0  0  0  0  0
   -3.3473   -0.9759    2.6792 C   0  0  0  0  0  0  0  0  0  0  0  0
   -3.7940   -1.8139    2.1093 H   0  0  0  0  0  0  0  0  0  0  0  0
   -3.9891   -0.7915    3.5654 H   0  0  0  0  0  0  0  0  0  0  0  0
   -2.3610   -1.3143    3.0500 H   0  0  0  0  0  0  0  0  0  0  0  0
   -2.4626    1.3977    2.6463 C   0  0  0  0  0  0  0  0  0  0  0  0
   -1.4197    1.0951    2.8647 H   0  0  0  0  0  0  0  0  0  0  0  0
   -2.9742    1.5712    3.6159 H   0  0  0  0  0  0  0  0  0  0  0  0
   -2.4254    2.3589    2.0999 H   0  0  0  0  0  0  0  0  0  0  0  0
    2.7777    0.3974   -2.0657 C   0  0  0  0  0  0  0  0  0  0  0  0
    1.9404    1.1138   -2.2257 H   0  0  0  0  0  0  0  0  0  0  0  0
    2.6331   -0.7047   -3.1207 C   0  0  0  0  0  0  0  0  0  0  0  0
    2.6253   -0.2366   -4.1268 H   0  0  0  0  0  0  0  0  0  0  0  0
    1.6757   -1.2474   -3.0136 H   0  0  0  0  0  0  0  0  0  0  0  0
    3.4720   -1.4264   -3.1019 H   0  0  0  0  0  0  0  0  0  0  0  0
    4.1090    1.1477   -2.1655 C   0  0  0  0  0  0  0  0  0  0  0  0
    4.2319    1.5524   -3.1917 H   0  0  0  0  0  0  0  0  0  0  0  0
    4.9772    0.4827   -1.9742 H   0  0  0  0  0  0  0  0  0  0  0  0
    4.1627    2.0034   -1.4654 H   0  0  0  0  0  0  0  0  0  0  0  0
    3.8265   -1.1027    0.3511 C   0  0  0  0  0  0  0  0  0  0  0  0
    4.6893   -0.4050    0.2742 H   0  0  0  0  0  0  0  0  0  0  0  0
    3.6324   -1.5015    1.8169 C   0  0  0  0  0  0  0  0  0  0  0  0
    4.5496   -2.0032    2.1877 H   0  0  0  0  0  0  0  0  0  0  0  0
    2.7903   -2.2150    1.9185 H   0  0  0  0  0  0  0  0  0  0  0  0
    3.4216   -0.6392    2.4752 H   0  0  0  0  0  0  0  0  0  0  0  0
    4.1452   -2.3277   -0.5171 C   0  0  0  0  0  0  0  0  0  0  0  0
    4.4734   -2.0532   -1.5358 H   0  0  0  0  0  0  0  0  0  0  0  0
    3.2832   -3.0152   -0.6077 H   0  0  0  0  0  0  0  0  0  0  0  0
    4.9730   -2.8940   -0.0430 H   0  0  0  0  0  0  0  0  0  0  0  0
  1 38  1  0  0  0  0
  2 13  1  0  0  0  0
  2  1  1  0  0  0  0
  3  6  1  0  0  0  0
  4 58  1  0  0  0  0
  4  5  1  0  0  0  0
  5 21  1  0  0  0  0
  6  5  1  0  0  0  0
  7  6  2  0  0  0  0
  7  8  1  0  0  0  0
  9  7  1  0  0  0  0
 10  9  1  0  0  0  0
 11 13  1  0  0  0  0
 11  9  2  0  0  0  0
 12 11  1  0  0  0  0
 13  3  2  0  0  0  0
 14 16  1  0  0  0  0
 14 15  1  0  0  0  0
 14  2  1  0  0  0  0
 17 14  1  0  0  0  0
 18 17  1  0  0  0  0
 19 17  1  0  0  0  0
 20 17  1  0  0  0  0
 21 24  1  0  0  0  0
 22 21  1  0  0  0  0
 23 21  1  0  0  0  0
 24 27  1  0  0  0  0
 24 25  1  0  0  0  0
 24 26  1  0  0  0  0
 28 30  1  0  0  0  0
 28  1  1  0  0  0  0
 29 28  1  0  0  0  0
 30 31  1  0  0  0  0
 30 32  1  0  0  0  0
 33 30  1  0  0  0  0
 34 28  1  0  0  0  0
 34 36  1  0  0  0  0
 35 34  1  0  0  0  0
 37 34  1  0  0  0  0
 38 44  1  0  0  0  0
 38 40  1  0  0  0  0
 39 38  1  0  0  0  0
 40 43  1  0  0  0  0
 40 42  1  0  0  0  0
 41 40  1  0  0  0  0
 44 45  1  0  0  0  0
 44 46  1  0  0  0  0
 47 44  1  0  0  0  0
 48  4  1  0  0  0  0
 49 48  1  0  0  0  0
 50 53  1  0  0  0  0
 50 52  1  0  0  0  0
 50 48  1  0  0  0  0
 51 50  1  0  0  0  0
 54 48  1  0  0  0  0
 54 56  1  0  0  0  0
 54 57  1  0  0  0  0
 55 54  1  0  0  0  0
 58 60  1  0  0  0  0
 59 58  1  0  0  0  0
 60 62  1  0  0  0  0
 60 61  1  0  0  0  0
 60 63  1  0  0  0  0
 64 67  1  0  0  0  0
 64 58  1  0  0  0  0
 65 64  1  0  0  0  0
 66 64  1  0  0  0  0
M  END
