1,2,5
q = -1.0

 29 29  0  0  0  0  0  0  0  0999 V2000
    2.1091   -0.4813   -0.0001 P   0  0  0  0  0  0  0  0  0  0  0  0
   -2.1092   -0.4807   -0.0001 P   0  0  0  0  0  0  0  0  0  0  0  0
    2.4057    1.1916   -0.0002 O   0  0  0  0  0  0  0  0  0  0  0  0
   -2.4054    1.1923    0.0002 O   0  0  0  0  0  0  0  0  0  0  0  0
    0.0002    1.1529   -0.0001 C   0  0  0  0  0  3  0  0  0  0  0  0
    1.2078    1.8937   -0.0001 C   0  0  0  0  0  0  0  0  0  0  0  0
    1.2271    3.2966    0.0001 C   0  0  0  0  0  0  0  0  0  0  0  0
    2.1877    3.8301    0.0001 H   0  0  0  0  0  0  0  0  0  0  0  0
    0.0006    3.9836    0.0003 C   0  0  0  0  0  0  0  0  0  0  0  0
    0.0007    5.0842    0.0004 H   0  0  0  0  0  0  0  0  0  0  0  0
   -1.2262    3.2969    0.0003 C   0  0  0  0  0  0  0  0  0  0  0  0
   -2.1867    3.8307    0.0005 H   0  0  0  0  0  0  0  0  0  0  0  0
   -1.2073    1.8941    0.0001 C   0  0  0  0  0  0  0  0  0  0  0  0
    3.0539   -1.0692   -1.4455 C   0  0  0  0  0  0  0  0  0  0  0  0
    4.1323   -0.8316   -1.3577 H   0  0  0  0  0  0  0  0  0  0  0  0
    2.6364   -0.5985   -2.3557 H   0  0  0  0  0  0  0  0  0  0  0  0
    2.8982   -2.1648   -1.5104 H   0  0  0  0  0  0  0  0  0  0  0  0
    3.0533   -1.0689    1.4457 C   0  0  0  0  0  0  0  0  0  0  0  0
    4.1315   -0.8296    1.3589 H   0  0  0  0  0  0  0  0  0  0  0  0
    2.8993   -2.1648    1.5097 H   0  0  0  0  0  0  0  0  0  0  0  0
    2.6344   -0.5996    2.3558 H   0  0  0  0  0  0  0  0  0  0  0  0
   -3.0542   -1.0678   -1.4457 C   0  0  0  0  0  0  0  0  0  0  0  0
   -4.1324   -0.8292   -1.3580 H   0  0  0  0  0  0  0  0  0  0  0  0
   -2.8996   -2.1636   -1.5105 H   0  0  0  0  0  0  0  0  0  0  0  0
   -2.6361   -0.5976   -2.3558 H   0  0  0  0  0  0  0  0  0  0  0  0
   -3.0535   -1.0687    1.4455 C   0  0  0  0  0  0  0  0  0  0  0  0
   -4.1318   -0.8301    1.3586 H   0  0  0  0  0  0  0  0  0  0  0  0
   -2.6350   -0.5990    2.3557 H   0  0  0  0  0  0  0  0  0  0  0  0
   -2.8987   -2.1645    1.5096 H   0  0  0  0  0  0  0  0  0  0  0  0
  1 18  1  0  0  0  0
  2  4  1  0  0  0  0
  2 26  1  0  0  0  0
  3  1  1  0  0  0  0
  3  6  1  0  0  0  0
  5  6  2  0  0  0  0
  5 13  1  0  0  0  0
  6  7  1  0  0  0  0
  7  8  1  0  0  0  0
  7  9  2  0  0  0  0
  9 11  1  0  0  0  0
  9 10  1  0  0  0  0
 11 12  1  0  0  0  0
 13  4  1  0  0  0  0
 13 11  2  0  0  0  0
 14 15  1  0  0  0  0
 14  1  1  0  0  0  0
 16 14  1  0  0  0  0
 17 14  1  0  0  0  0
 18 20  1  0  0  0  0
 18 21  1  0  0  0  0
 19 18  1  0  0  0  0
 22 23  1  0  0  0  0
 22  2  1  0  0  0  0
 24 22  1  0  0  0  0
 25 22  1  0  0  0  0
 26 29  1  0  0  0  0
 26 28  1  0  0  0  0
 27 26  1  0  0  0  0
M  END
