1,2,4
q = -1.0

 68 68  0  0  0  0  0  0  0  0999 V2000
   -2.3976   -0.0676    0.1460 P   0  0  0  0  0  0  0  0  0  0  0  0
    2.3945   -0.0855   -0.1178 P   0  0  0  0  0  0  0  0  0  0  0  0
   -0.0225    4.4112   -0.1082 N   0  0  0  0  0  0  0  0  0  0  0  0
   -0.0012    1.5791    0.0134 C   0  0  0  0  0  3  0  0  0  0  0  0
   -2.3029    1.5793    1.0326 C   0  0  0  0  0  0  0  0  0  0  0  0
   -3.2458    2.1574    0.9503 H   0  0  0  0  0  0  0  0  0  0  0  0
   -2.1628    1.3368    2.1094 H   0  0  0  0  0  0  0  0  0  0  0  0
   -1.1046    2.3250    0.4900 C   0  0  0  0  0  0  0  0  0  0  0  0
   -1.0583    3.7306    0.4039 C   0  0  0  0  0  0  0  0  0  0  0  0
   -1.9118    4.3352    0.7668 H   0  0  0  0  0  0  0  0  0  0  0  0
    1.0206    3.7019   -0.5666 C   0  0  0  0  0  0  0  0  0  0  0  0
    1.8620    4.2852   -0.9880 H   0  0  0  0  0  0  0  0  0  0  0  0
    1.0911    2.2957   -0.5303 C   0  0  0  0  0  0  0  0  0  0  0  0
    2.2863    1.5307   -1.0481 C   0  0  0  0  0  0  0  0  0  0  0  0
    3.2301    2.1110   -1.0049 H   0  0  0  0  0  0  0  0  0  0  0  0
    2.1026    1.2307   -2.1020 H   0  0  0  0  0  0  0  0  0  0  0  0
   -3.3601    0.3393   -1.4745 C   0  0  0  0  0  0  0  0  0  0  0  0
   -2.6933    1.5699   -2.1242 C   0  0  0  0  0  0  0  0  0  0  0  0
   -2.8344    2.4891   -1.5246 H   0  0  0  0  0  0  0  0  0  0  0  0
   -3.1808    1.7357   -3.1084 H   0  0  0  0  0  0  0  0  0  0  0  0
   -1.6138    1.4131   -2.3004 H   0  0  0  0  0  0  0  0  0  0  0  0
   -4.8330    0.6991   -1.2098 C   0  0  0  0  0  0  0  0  0  0  0  0
   -5.4384   -0.1623   -0.8713 H   0  0  0  0  0  0  0  0  0  0  0  0
   -5.2732    1.0471   -2.1682 H   0  0  0  0  0  0  0  0  0  0  0  0
   -4.9499    1.5272   -0.4824 H   0  0  0  0  0  0  0  0  0  0  0  0
   -3.2907   -0.8560   -2.4447 C   0  0  0  0  0  0  0  0  0  0  0  0
   -2.2427   -1.1436   -2.6494 H   0  0  0  0  0  0  0  0  0  0  0  0
   -3.7532   -0.5498   -3.4071 H   0  0  0  0  0  0  0  0  0  0  0  0
   -3.8474   -1.7365   -2.0779 H   0  0  0  0  0  0  0  0  0  0  0  0
   -3.5111   -1.1769    1.2690 C   0  0  0  0  0  0  0  0  0  0  0  0
   -4.0422   -2.3703    0.4548 C   0  0  0  0  0  0  0  0  0  0  0  0
   -4.7898   -2.0754   -0.3041 H   0  0  0  0  0  0  0  0  0  0  0  0
   -4.5386   -3.0824    1.1473 H   0  0  0  0  0  0  0  0  0  0  0  0
   -3.2231   -2.9174   -0.0539 H   0  0  0  0  0  0  0  0  0  0  0  0
   -4.6725   -0.3817    1.8973 C   0  0  0  0  0  0  0  0  0  0  0  0
   -4.3053    0.4367    2.5470 H   0  0  0  0  0  0  0  0  0  0  0  0
   -5.2605   -1.0683    2.5429 H   0  0  0  0  0  0  0  0  0  0  0  0
   -5.3661    0.0491    1.1564 H   0  0  0  0  0  0  0  0  0  0  0  0
   -2.6712   -1.7433    2.4254 C   0  0  0  0  0  0  0  0  0  0  0  0
   -1.8207   -2.3523    2.0675 H   0  0  0  0  0  0  0  0  0  0  0  0
   -3.3229   -2.4030    3.0361 H   0  0  0  0  0  0  0  0  0  0  0  0
   -2.2835   -0.9560    3.0968 H   0  0  0  0  0  0  0  0  0  0  0  0
    3.5725   -1.2253   -1.1472 C   0  0  0  0  0  0  0  0  0  0  0  0
    4.6476   -0.3855   -1.8648 C   0  0  0  0  0  0  0  0  0  0  0  0
    4.1975    0.3011   -2.6074 H   0  0  0  0  0  0  0  0  0  0  0  0
    5.3165   -1.0747   -2.4230 H   0  0  0  0  0  0  0  0  0  0  0  0
    5.2796    0.2073   -1.1806 H   0  0  0  0  0  0  0  0  0  0  0  0
    4.2239   -2.2824   -0.2374 C   0  0  0  0  0  0  0  0  0  0  0  0
    4.9535   -1.8601    0.4769 H   0  0  0  0  0  0  0  0  0  0  0  0
    4.7731   -3.0034   -0.8785 H   0  0  0  0  0  0  0  0  0  0  0  0
    3.4653   -2.8588    0.3291 H   0  0  0  0  0  0  0  0  0  0  0  0
    2.7782   -1.9886   -2.2199 C   0  0  0  0  0  0  0  0  0  0  0  0
    2.0014   -2.6388   -1.7774 H   0  0  0  0  0  0  0  0  0  0  0  0
    3.4917   -2.6367   -2.7724 H   0  0  0  0  0  0  0  0  0  0  0  0
    2.2736   -1.3195   -2.9373 H   0  0  0  0  0  0  0  0  0  0  0  0
    3.3105    0.4112    1.5122 C   0  0  0  0  0  0  0  0  0  0  0  0
    4.7660    0.8479    1.2575 C   0  0  0  0  0  0  0  0  0  0  0  0
    5.4167    0.0231    0.9144 H   0  0  0  0  0  0  0  0  0  0  0  0
    5.1898    1.2206    2.2140 H   0  0  0  0  0  0  0  0  0  0  0  0
    4.8348    1.6794    0.5284 H   0  0  0  0  0  0  0  0  0  0  0  0
    2.5894    1.6271    2.1334 C   0  0  0  0  0  0  0  0  0  0  0  0
    2.6903    2.5353    1.5109 H   0  0  0  0  0  0  0  0  0  0  0  0
    3.0639    1.8385    3.1149 H   0  0  0  0  0  0  0  0  0  0  0  0
    1.5140    1.4642    2.3123 H   0  0  0  0  0  0  0  0  0  0  0  0
    3.3007   -0.7553    2.5208 C   0  0  0  0  0  0  0  0  0  0  0  0
    2.2935   -1.1791    2.6749 H   0  0  0  0  0  0  0  0  0  0  0  0
    3.6504   -0.3772    3.5045 H   0  0  0  0  0  0  0  0  0  0  0  0
    3.9754   -1.5770    2.2258 H   0  0  0  0  0  0  0  0  0  0  0  0
  1  5  1  0  0  0  0
  1 30  1  0  0  0  0
  2 56  1  0  0  0  0
  3  9  1  0  0  0  0
  4  8  1  0  0  0  0
  5  7  1  0  0  0  0
  6  5  1  0  0  0  0
  8  5  1  0  0  0  0
  9  8  2  0  0  0  0
  9 10  1  0  0  0  0
 11 13  1  0  0  0  0
 11  3  2  0  0  0  0
 12 11  1  0  0  0  0
 13  4  2  0  0  0  0
 14 15  1  0  0  0  0
 14 13  1  0  0  0  0
 14  2  1  0  0  0  0
 16 14  1  0  0  0  0
 17 22  1  0  0  0  0
 17  1  1  0  0  0  0
 18 19  1  0  0  0  0
 18 17  1  0  0  0  0
 20 18  1  0  0  0  0
 21 18  1  0  0  0  0
 22 23  1  0  0  0  0
 22 25  1  0  0  0  0
 24 22  1  0  0  0  0
 26 29  1  0  0  0  0
 26 17  1  0  0  0  0
 27 26  1  0  0  0  0
 28 26  1  0  0  0  0
 30 35  1  0  0  0  0
 30 39  1  0  0  0  0
 31 33  1  0  0  0  0
 31 30  1  0  0  0  0
 32 31  1  0  0  0  0
 34 31  1  0  0  0  0
 35 37  1  0  0  0  0
 35 36  1  0  0  0  0
 38 35  1  0  0  0  0
 39 41  1  0  0  0  0
 39 42  1  0  0  0  0
 40 39  1  0  0  0  0
 43 48  1  0  0  0  0
 43  2  1  0  0  0  0
 44 47  1  0  0  0  0
 44 43  1  0  0  0  0
 45 44  1  0  0  0  0
 46 44  1  0  0  0  0
 48 51  1  0  0  0  0
 48 49  1  0  0  0  0
 50 48  1  0  0  0  0
 52 53  1  0  0  0  0
 52 43  1  0  0  0  0
 54 52  1  0  0  0  0
 55 52  1  0  0  0  0
 56 61  1  0  0  0  0
 56 65  1  0  0  0  0
 57 56  1  0  0  0  0
 57 59  1  0  0  0  0
 58 57  1  0  0  0  0
 60 57  1  0  0  0  0
 61 64  1  0  0  0  0
 61 63  1  0  0  0  0
 62 61  1  0  0  0  0
 65 66  1  0  0  0  0
 65 67  1  0  0  0  0
 68 65  1  0  0  0  0
M  END
