1,2,41
q = -1.0

 81 91  0  0  0  0  0  0  0  0999 V2000
   -2.2140    1.0870   -0.1525 P   0  0  0  0  0  0  0  0  0  0  0  0
    2.2135    1.0861    0.1531 P   0  0  0  0  0  0  0  0  0  0  0  0
   -3.1498    0.6179   -1.4301 O   0  0  0  0  0  0  0  0  0  0  0  0
   -3.1658    0.6952    1.1370 O   0  0  0  0  0  0  0  0  0  0  0  0
   -2.3890    2.7310   -0.3392 O   0  0  0  0  0  0  0  0  0  0  0  0
    2.3891    2.7301    0.3398 O   0  0  0  0  0  0  0  0  0  0  0  0
    3.1494    0.6166    1.4305 O   0  0  0  0  0  0  0  0  0  0  0  0
    3.1649    0.6940   -1.1367 O   0  0  0  0  0  0  0  0  0  0  0  0
   -3.6200   -0.7035   -1.3764 C   0  0  0  0  0  0  0  0  0  0  0  0
   -2.9664   -1.6715   -2.1736 C   0  0  0  0  0  0  0  0  0  0  0  0
   -2.1095   -1.3610   -2.7860 H   0  0  0  0  0  0  0  0  0  0  0  0
   -3.4119   -2.9796   -2.1411 C   0  0  0  0  0  0  0  0  0  0  0  0
   -2.9183   -3.7470   -2.7560 H   0  0  0  0  0  0  0  0  0  0  0  0
   -4.4806   -3.3666   -1.2811 C   0  0  0  0  0  0  0  0  0  0  0  0
   -4.9074   -4.7247   -1.1986 C   0  0  0  0  0  0  0  0  0  0  0  0
   -4.4140   -5.4682   -1.8437 H   0  0  0  0  0  0  0  0  0  0  0  0
   -5.9054   -5.1083   -0.3170 C   0  0  0  0  0  0  0  0  0  0  0  0
   -6.2205   -6.1610   -0.2606 H   0  0  0  0  0  0  0  0  0  0  0  0
   -6.5076   -4.1421    0.5311 C   0  0  0  0  0  0  0  0  0  0  0  0
   -7.2793   -4.4527    1.2516 H   0  0  0  0  0  0  0  0  0  0  0  0
   -6.1259   -2.8101    0.4673 C   0  0  0  0  0  0  0  0  0  0  0  0
   -6.5909   -2.0754    1.1383 H   0  0  0  0  0  0  0  0  0  0  0  0
   -5.1231   -2.3750   -0.4500 C   0  0  0  0  0  0  0  0  0  0  0  0
   -4.7012   -0.9991   -0.5426 C   0  0  0  0  0  0  0  0  0  0  0  0
   -4.5486    0.8972    1.0731 C   0  0  0  0  0  0  0  0  0  0  0  0
   -5.3357    0.0917    0.2450 C   0  0  0  0  0  0  0  0  0  0  0  0
   -6.7463    0.3844    0.1683 C   0  0  0  0  0  0  0  0  0  0  0  0
   -7.6149   -0.2807   -0.7482 C   0  0  0  0  0  0  0  0  0  0  0  0
   -7.1955   -1.0343   -1.4283 H   0  0  0  0  0  0  0  0  0  0  0  0
   -8.9682    0.0196   -0.7979 C   0  0  0  0  0  0  0  0  0  0  0  0
   -9.6151   -0.5040   -1.5179 H   0  0  0  0  0  0  0  0  0  0  0  0
   -9.5239    1.0006    0.0650 C   0  0  0  0  0  0  0  0  0  0  0  0
  -10.6003    1.2246    0.0207 H   0  0  0  0  0  0  0  0  0  0  0  0
   -8.7039    1.6858    0.9473 C   0  0  0  0  0  0  0  0  0  0  0  0
   -9.1178    2.4649    1.6063 H   0  0  0  0  0  0  0  0  0  0  0  0
   -7.3059    1.4126    1.0145 C   0  0  0  0  0  0  0  0  0  0  0  0
   -6.4481    2.1528    1.8795 C   0  0  0  0  0  0  0  0  0  0  0  0
   -6.8835    2.9338    2.5214 H   0  0  0  0  0  0  0  0  0  0  0  0
   -5.0856    1.9179    1.8937 C   0  0  0  0  0  0  0  0  0  0  0  0
   -4.3983    2.4958    2.5270 H   0  0  0  0  0  0  0  0  0  0  0  0
    0.0001    2.7069    0.0003 C   0  0  0  0  0  3  0  0  0  0  0  0
   -1.1943    3.4326   -0.1686 C   0  0  0  0  0  0  0  0  0  0  0  0
   -1.2145    4.8343   -0.1696 C   0  0  0  0  0  0  0  0  0  0  0  0
   -2.1659    5.3667   -0.3030 H   0  0  0  0  0  0  0  0  0  0  0  0
    0.0006    5.5204    0.0001 C   0  0  0  0  0  0  0  0  0  0  0  0
    0.0008    6.6204   -0.0000 H   0  0  0  0  0  0  0  0  0  0  0  0
    1.2154    4.8338    0.1699 C   0  0  0  0  0  0  0  0  0  0  0  0
    2.1671    5.3659    0.3032 H   0  0  0  0  0  0  0  0  0  0  0  0
    1.1947    3.4321    0.1691 C   0  0  0  0  0  0  0  0  0  0  0  0
    3.6203   -0.7044    1.3765 C   0  0  0  0  0  0  0  0  0  0  0  0
    2.9673   -1.6728    2.1737 C   0  0  0  0  0  0  0  0  0  0  0  0
    2.1104   -1.3628    2.7862 H   0  0  0  0  0  0  0  0  0  0  0  0
    3.4135   -2.9807    2.1411 C   0  0  0  0  0  0  0  0  0  0  0  0
    2.9204   -3.7484    2.7561 H   0  0  0  0  0  0  0  0  0  0  0  0
    4.4823   -3.3671    1.2809 C   0  0  0  0  0  0  0  0  0  0  0  0
    4.9098   -4.7250    1.1983 C   0  0  0  0  0  0  0  0  0  0  0  0
    4.4169   -5.4687    1.8435 H   0  0  0  0  0  0  0  0  0  0  0  0
    5.9079   -5.1080    0.3165 C   0  0  0  0  0  0  0  0  0  0  0  0
    6.2235   -6.1606    0.2600 H   0  0  0  0  0  0  0  0  0  0  0  0
    6.5094   -4.1415   -0.5317 C   0  0  0  0  0  0  0  0  0  0  0  0
    7.2811   -4.4516   -1.2523 H   0  0  0  0  0  0  0  0  0  0  0  0
    6.1269   -2.8096   -0.4678 C   0  0  0  0  0  0  0  0  0  0  0  0
    6.5915   -2.0747   -1.1388 H   0  0  0  0  0  0  0  0  0  0  0  0
    5.1241   -2.3751    0.4497 C   0  0  0  0  0  0  0  0  0  0  0  0
    4.7015   -0.9994    0.5425 C   0  0  0  0  0  0  0  0  0  0  0  0
    4.5476    0.8968   -1.0732 C   0  0  0  0  0  0  0  0  0  0  0  0
    5.3353    0.0917   -0.2453 C   0  0  0  0  0  0  0  0  0  0  0  0
    6.7457    0.3851   -0.1689 C   0  0  0  0  0  0  0  0  0  0  0  0
    7.6149   -0.2795    0.7474 C   0  0  0  0  0  0  0  0  0  0  0  0
    7.1960   -1.0333    1.4276 H   0  0  0  0  0  0  0  0  0  0  0  0
    8.9680    0.0215    0.7968 C   0  0  0  0  0  0  0  0  0  0  0  0
    9.6154   -0.5017    1.5167 H   0  0  0  0  0  0  0  0  0  0  0  0
    9.5230    1.0028   -0.0662 C   0  0  0  0  0  0  0  0  0  0  0  0
   10.5993    1.2274   -0.0221 H   0  0  0  0  0  0  0  0  0  0  0  0
    8.7025    1.6876   -0.9484 C   0  0  0  0  0  0  0  0  0  0  0  0
    9.1158    2.4669   -1.6074 H   0  0  0  0  0  0  0  0  0  0  0  0
    7.3046    1.4136   -1.0152 C   0  0  0  0  0  0  0  0  0  0  0  0
    6.4462    2.1534   -1.8800 C   0  0  0  0  0  0  0  0  0  0  0  0
    6.8810    2.9346   -2.5220 H   0  0  0  0  0  0  0  0  0  0  0  0
    5.0838    1.9178   -1.8940 C   0  0  0  0  0  0  0  0  0  0  0  0
    4.3961    2.4953   -2.5271 H   0  0  0  0  0  0  0  0  0  0  0  0
  1  4  1  0  0  0  0
  2  6  1  0  0  0  0
  2  7  1  0  0  0  0
  3  9  1  0  0  0  0
  3  1  1  0  0  0  0
  5 42  1  0  0  0  0
  5  1  1  0  0  0  0
  8 66  1  0  0  0  0
  8  2  1  0  0  0  0
  9 24  1  0  0  0  0
 10 12  1  0  0  0  0
 10  9  2  0  0  0  0
 11 10  1  0  0  0  0
 12 14  2  0  0  0  0
 13 12  1  0  0  0  0
 14 15  1  0  0  0  0
 14 23  1  0  0  0  0
 15 17  2  0  0  0  0
 16 15  1  0  0  0  0
 17 18  1  0  0  0  0
 17 19  1  0  0  0  0
 19 20  1  0  0  0  0
 21 19  2  0  0  0  0
 21 22  1  0  0  0  0
 23 21  1  0  0  0  0
 24 23  2  0  0  0  0
 24 26  1  0  0  0  0
 25  4  1  0  0  0  0
 25 39  1  0  0  0  0
 26 25  2  0  0  0  0
 27 26  1  0  0  0  0
 27 36  1  0  0  0  0
 28 27  2  0  0  0  0
 29 28  1  0  0  0  0
 30 28  1  0  0  0  0
 30 32  2  0  0  0  0
 31 30  1  0  0  0  0
 32 34  1  0  0  0  0
 33 32  1  0  0  0  0
 34 36  2  0  0  0  0
 34 35  1  0  0  0  0
 36 37  1  0  0  0  0
 37 39  2  0  0  0  0
 37 38  1  0  0  0  0
 39 40  1  0  0  0  0
 41 49  1  0  0  0  0
 42 41  2  0  0  0  0
 43 42  1  0  0  0  0
 43 45  2  0  0  0  0
 44 43  1  0  0  0  0
 45 47  1  0  0  0  0
 46 45  1  0  0  0  0
 47 48  1  0  0  0  0
 49 47  2  0  0  0  0
 49  6  1  0  0  0  0
 50  7  1  0  0  0  0
 50 51  1  0  0  0  0
 51 52  1  0  0  0  0
 53 51  2  0  0  0  0
 53 54  1  0  0  0  0
 55 53  1  0  0  0  0
 56 55  1  0  0  0  0
 56 57  1  0  0  0  0
 58 56  2  0  0  0  0
 59 58  1  0  0  0  0
 60 62  2  0  0  0  0
 60 58  1  0  0  0  0
 61 60  1  0  0  0  0
 62 64  1  0  0  0  0
 63 62  1  0  0  0  0
 64 65  1  0  0  0  0
 64 55  2  0  0  0  0
 65 50  2  0  0  0  0
 66 67  1  0  0  0  0
 67 68  2  0  0  0  0
 67 65  1  0  0  0  0
 68 69  1  0  0  0  0
 69 71  2  0  0  0  0
 69 70  1  0  0  0  0
 71 72  1  0  0  0  0
 73 74  1  0  0  0  0
 73 71  1  0  0  0  0
 75 73  2  0  0  0  0
 76 75  1  0  0  0  0
 77 75  1  0  0  0  0
 77 68  1  0  0  0  0
 78 77  2  0  0  0  0
 79 78  1  0  0  0  0
 80 78  1  0  0  0  0
 80 66  2  0  0  0  0
 81 80  1  0  0  0  0
M  END
