1,3,6
q = 0.0, confidence = 1.0

 66 67  0  0  0  0  0  0  0  0999 V2000
   -0.9136   -1.4230    1.4075 C   0  0  0  0  0  3  0  0  0  0  0  0
   -0.7445   -2.4455    1.0173 H   0  0  0  0  0  0  0  0  0  0  0  0
   -2.4438   -0.0704   -0.8529 P   0  0  0  0  0  0  0  0  0  0  0  0
    0.1827   -0.7329    1.8920 C   0  0  0  0  0  3  0  0  0  0  0  0
    0.0124    0.2128    2.4382 H   0  0  0  0  0  0  0  0  0  0  0  0
    1.6790   -1.3393   -0.8464 P   0  0  0  0  0  0  0  0  0  0  0  0
   -3.2192   -0.5664    0.7435 C   0  0  0  0  0  0  0  0  0  0  0  0
   -2.3439   -1.0993    1.7214 C   0  0  0  0  0  0  0  0  0  0  0  0
   -2.8603   -1.4200    2.9947 C   0  0  0  0  0  0  0  0  0  0  0  0
   -2.1822   -1.8300    3.7585 H   0  0  0  0  0  0  0  0  0  0  0  0
   -4.2177   -1.2259    3.2867 C   0  0  0  0  0  0  0  0  0  0  0  0
   -4.6014   -1.4721    4.2884 H   0  0  0  0  0  0  0  0  0  0  0  0
   -5.0863   -0.7214    2.3050 C   0  0  0  0  0  0  0  0  0  0  0  0
   -6.1528   -0.5730    2.5320 H   0  0  0  0  0  0  0  0  0  0  0  0
   -4.5851   -0.3915    1.0383 C   0  0  0  0  0  0  0  0  0  0  0  0
   -5.2615    0.0271    0.2761 H   0  0  0  0  0  0  0  0  0  0  0  0
    2.2834   -1.7902    0.8421 C   0  0  0  0  0  0  0  0  0  0  0  0
    1.5509   -1.3144    1.9650 C   0  0  0  0  0  0  0  0  0  0  0  0
    4.0175   -2.6542    2.3419 C   0  0  0  0  0  0  0  0  0  0  0  0
    4.9669   -3.1923    2.4837 H   0  0  0  0  0  0  0  0  0  0  0  0
    3.3354   -2.1128    3.4427 C   0  0  0  0  0  0  0  0  0  0  0  0
    3.7501   -2.2144    4.4570 H   0  0  0  0  0  0  0  0  0  0  0  0
    2.1160   -1.4534    3.2524 C   0  0  0  0  0  0  0  0  0  0  0  0
    1.5687   -1.0498    4.1179 H   0  0  0  0  0  0  0  0  0  0  0  0
    2.9736   -0.1367   -1.4920 C   0  0  0  0  0  0  0  0  0  0  0  0
    3.0375    0.5555   -0.6228 H   0  0  0  0  0  0  0  0  0  0  0  0
    3.4942   -2.4823    1.0535 C   0  0  0  0  0  0  0  0  0  0  0  0
    4.0476   -2.8886    0.1938 H   0  0  0  0  0  0  0  0  0  0  0  0
    4.3547   -0.7214   -1.7867 C   0  0  0  0  0  0  0  0  0  0  0  0
    5.0395    0.0895   -2.1124 H   0  0  0  0  0  0  0  0  0  0  0  0
    4.3272   -1.4703   -2.6064 H   0  0  0  0  0  0  0  0  0  0  0  0
    4.8126   -1.1931   -0.8965 H   0  0  0  0  0  0  0  0  0  0  0  0
    2.4139    0.6701   -2.6736 C   0  0  0  0  0  0  0  0  0  0  0  0
    3.0838    1.5302   -2.8810 H   0  0  0  0  0  0  0  0  0  0  0  0
    1.4144    1.0789   -2.4341 H   0  0  0  0  0  0  0  0  0  0  0  0
    2.3456    0.0684   -3.6029 H   0  0  0  0  0  0  0  0  0  0  0  0
   -2.9826    2.5073    0.1425 C   0  0  0  0  0  0  0  0  0  0  0  0
   -3.2643    3.5579   -0.0781 H   0  0  0  0  0  0  0  0  0  0  0  0
   -1.9564    2.5196    0.5610 H   0  0  0  0  0  0  0  0  0  0  0  0
   -3.6673    2.1289    0.9246 H   0  0  0  0  0  0  0  0  0  0  0  0
   -3.3417   -1.1685   -2.0852 C   0  0  0  0  0  0  0  0  0  0  0  0
   -4.4280   -0.9616   -1.9563 H   0  0  0  0  0  0  0  0  0  0  0  0
   -3.0499    1.6848   -1.1526 C   0  0  0  0  0  0  0  0  0  0  0  0
   -4.1084    1.5940   -1.4897 H   0  0  0  0  0  0  0  0  0  0  0  0
   -3.0591   -2.6305   -1.7212 C   0  0  0  0  0  0  0  0  0  0  0  0
   -3.5798   -3.3125   -2.4246 H   0  0  0  0  0  0  0  0  0  0  0  0
   -3.3935   -2.8763   -0.6939 H   0  0  0  0  0  0  0  0  0  0  0  0
   -1.9710   -2.8418   -1.7848 H   0  0  0  0  0  0  0  0  0  0  0  0
   -2.9310   -0.8613   -3.5290 C   0  0  0  0  0  0  0  0  0  0  0  0
   -3.2690    0.1386   -3.8617 H   0  0  0  0  0  0  0  0  0  0  0  0
   -3.3736   -1.6095   -4.2188 H   0  0  0  0  0  0  0  0  0  0  0  0
   -1.8271   -0.9054   -3.6444 H   0  0  0  0  0  0  0  0  0  0  0  0
    1.8369   -2.9448   -1.8025 C   0  0  0  0  0  0  0  0  0  0  0  0
    2.9050   -3.2529   -1.7622 H   0  0  0  0  0  0  0  0  0  0  0  0
    0.9820   -4.0233   -1.1271 C   0  0  0  0  0  0  0  0  0  0  0  0
   -0.0887   -3.7294   -1.1214 H   0  0  0  0  0  0  0  0  0  0  0  0
    1.2912   -4.2029   -0.0785 H   0  0  0  0  0  0  0  0  0  0  0  0
    1.0623   -4.9832   -1.6783 H   0  0  0  0  0  0  0  0  0  0  0  0
    1.4341   -2.7408   -3.2676 C   0  0  0  0  0  0  0  0  0  0  0  0
    2.1132   -2.0455   -3.7975 H   0  0  0  0  0  0  0  0  0  0  0  0
    0.4054   -2.3291   -3.3422 H   0  0  0  0  0  0  0  0  0  0  0  0
    1.4527   -3.7086   -3.8109 H   0  0  0  0  0  0  0  0  0  0  0  0
   -2.2085    2.3557   -2.2509 C   0  0  0  0  0  0  0  0  0  0  0  0
   -2.1674    1.7734   -3.1908 H   0  0  0  0  0  0  0  0  0  0  0  0
   -1.1737    2.5063   -1.8870 H   0  0  0  0  0  0  0  0  0  0  0  0
   -2.6385    3.3505   -2.4897 H   0  0  0  0  0  0  0  0  0  0  0  0
  1  8  1  0  0  0  0
  1  4  1  0  0  0  0
  2  1  1  0  0  0  0
  3  7  1  0  0  0  0
  4 18  1  0  0  0  0
  4  5  1  0  0  0  0
  6 17  1  0  0  0  0
  7 15  2  0  0  0  0
  7  8  1  0  0  0  0
  8  9  2  0  0  0  0
  9 11  1  0  0  0  0
  9 10  1  0  0  0  0
 11 12  1  0  0  0  0
 13 14  1  0  0  0  0
 13 11  2  0  0  0  0
 15 13  1  0  0  0  0
 16 15  1  0  0  0  0
 17 27  2  0  0  0  0
 17 18  1  0  0  0  0
 18 23  2  0  0  0  0
 19 20  1  0  0  0  0
 19 21  2  0  0  0  0
 21 22  1  0  0  0  0
 23 21  1  0  0  0  0
 23 24  1  0  0  0  0
 25  6  1  0  0  0  0
 25 26  1  0  0  0  0
 27 19  1  0  0  0  0
 28 27  1  0  0  0  0
 29 25  1  0  0  0  0
 29 32  1  0  0  0  0
 30 29  1  0  0  0  0
 31 29  1  0  0  0  0
 33 35  1  0  0  0  0
 33 25  1  0  0  0  0
 34 33  1  0  0  0  0
 36 33  1  0  0  0  0
 37 39  1  0  0  0  0
 37 40  1  0  0  0  0
 38 37  1  0  0  0  0
 41 42  1  0  0  0  0
 41 45  1  0  0  0  0
 41  3  1  0  0  0  0
 43  3  1  0  0  0  0
 43 37  1  0  0  0  0
 44 43  1  0  0  0  0
 45 47  1  0  0  0  0
 46 45  1  0  0  0  0
 48 45  1  0  0  0  0
 49 41  1  0  0  0  0
 50 49  1  0  0  0  0
 51 49  1  0  0  0  0
 52 49  1  0  0  0  0
 53 54  1  0  0  0  0
 53 55  1  0  0  0  0
 53  6  1  0  0  0  0
 55 56  1  0  0  0  0
 55 57  1  0  0  0  0
 58 55  1  0  0  0  0
 59 53  1  0  0  0  0
 60 59  1  0  0  0  0
 61 59  1  0  0  0  0
 62 59  1  0  0  0  0
 63 65  1  0  0  0  0
 63 43  1  0  0  0  0
 64 63  1  0  0  0  0
 66 63  1  0  0  0  0
M  END
