2,3,6
q = -1.0, confidence = 0.0

 53 53  0  0  0  0  0  0  0  0999 V2000
   -3.8243    3.2138   -0.3820 Cl  0  0  0  0  0  0  0  0  0  0  0  0
   -1.8858   -1.0146    0.0753 P   0  0  0  0  0  0  0  0  0  0  0  0
    2.3959    0.4379   -0.0039 P   0  0  0  0  0  0  0  0  0  0  0  0
   -2.5688    0.5338   -0.1215 O   0  0  0  0  0  0  0  0  0  0  0  0
    1.9997    2.0844   -0.1664 O   0  0  0  0  0  0  0  0  0  0  0  0
   -0.2744    1.2800   -0.1258 C   0  0  0  0  0  3  0  0  0  0  0  0
   -1.6558    1.5634   -0.1900 C   0  0  0  0  0  0  0  0  0  0  0  0
   -2.1090    2.8908   -0.3230 C   0  0  0  0  0  0  0  0  0  0  0  0
   -1.1769    3.9394   -0.4039 C   0  0  0  0  0  0  0  0  0  0  0  0
   -1.5479    4.9683   -0.5083 H   0  0  0  0  0  0  0  0  0  0  0  0
    0.2023    3.6790   -0.3528 C   0  0  0  0  0  0  0  0  0  0  0  0
    0.9356    4.4945   -0.4187 H   0  0  0  0  0  0  0  0  0  0  0  0
    0.6395    2.3527   -0.2147 C   0  0  0  0  0  0  0  0  0  0  0  0
   -2.1741   -0.7298    2.7949 C   0  0  0  0  0  0  0  0  0  0  0  0
   -2.4691    0.3328    2.6782 H   0  0  0  0  0  0  0  0  0  0  0  0
   -1.0679   -0.7733    2.8458 H   0  0  0  0  0  0  0  0  0  0  0  0
   -2.5872   -1.0967    3.7562 H   0  0  0  0  0  0  0  0  0  0  0  0
   -2.7131   -1.5753    1.6321 C   0  0  0  0  0  0  0  0  0  0  0  0
   -2.3558   -2.6230    1.7511 H   0  0  0  0  0  0  0  0  0  0  0  0
   -4.2420   -1.5350    1.5292 C   0  0  0  0  0  0  0  0  0  0  0  0
   -4.6943   -1.8230    2.5003 H   0  0  0  0  0  0  0  0  0  0  0  0
   -4.6337   -2.2303    0.7607 H   0  0  0  0  0  0  0  0  0  0  0  0
   -4.5879   -0.5110    1.2813 H   0  0  0  0  0  0  0  0  0  0  0  0
   -2.3009   -3.4317   -1.1954 C   0  0  0  0  0  0  0  0  0  0  0  0
   -2.6377   -3.9797   -2.0990 H   0  0  0  0  0  0  0  0  0  0  0  0
   -2.8172   -3.8792   -0.3225 H   0  0  0  0  0  0  0  0  0  0  0  0
   -1.2104   -3.6012   -1.0696 H   0  0  0  0  0  0  0  0  0  0  0  0
   -2.6138   -1.9363   -1.3503 C   0  0  0  0  0  0  0  0  0  0  0  0
   -3.7107   -1.7590   -1.3035 H   0  0  0  0  0  0  0  0  0  0  0  0
   -2.0600   -1.3405   -2.6509 C   0  0  0  0  0  0  0  0  0  0  0  0
   -0.9596   -1.4705   -2.7041 H   0  0  0  0  0  0  0  0  0  0  0  0
   -2.2818   -0.2581   -2.7290 H   0  0  0  0  0  0  0  0  0  0  0  0
   -2.5146   -1.8510   -3.5244 H   0  0  0  0  0  0  0  0  0  0  0  0
    4.6850    1.3518    1.3740 C   0  0  0  0  0  0  0  0  0  0  0  0
    4.3771    2.3958    1.1634 H   0  0  0  0  0  0  0  0  0  0  0  0
    5.3691    1.0223    0.5671 H   0  0  0  0  0  0  0  0  0  0  0  0
    5.2631    1.3524    2.3208 H   0  0  0  0  0  0  0  0  0  0  0  0
    3.4582    0.4438    1.5100 C   0  0  0  0  0  0  0  0  0  0  0  0
    3.7695   -0.6215    1.5993 H   0  0  0  0  0  0  0  0  0  0  0  0
    2.5788    0.8054    2.7153 C   0  0  0  0  0  0  0  0  0  0  0  0
    3.1653    0.7264    3.6531 H   0  0  0  0  0  0  0  0  0  0  0  0
    1.7022    0.1312    2.7891 H   0  0  0  0  0  0  0  0  0  0  0  0
    2.2027    1.8451    2.6313 H   0  0  0  0  0  0  0  0  0  0  0  0
    4.1372   -1.2322   -1.3569 C   0  0  0  0  0  0  0  0  0  0  0  0
    3.3812   -2.0293   -1.1926 H   0  0  0  0  0  0  0  0  0  0  0  0
    4.8620   -1.2741   -0.5193 H   0  0  0  0  0  0  0  0  0  0  0  0
    4.6915   -1.4631   -2.2896 H   0  0  0  0  0  0  0  0  0  0  0  0
    3.4697    0.1453   -1.4794 C   0  0  0  0  0  0  0  0  0  0  0  0
    4.2345    0.9530   -1.4671 H   0  0  0  0  0  0  0  0  0  0  0  0
    2.6104    0.2800   -2.7432 C   0  0  0  0  0  0  0  0  0  0  0  0
    3.2431    0.1581   -3.6460 H   0  0  0  0  0  0  0  0  0  0  0  0
    2.1163    1.2698   -2.7981 H   0  0  0  0  0  0  0  0  0  0  0  0
    1.8198   -0.4978   -2.7630 H   0  0  0  0  0  0  0  0  0  0  0  0
  1  8  1  0  0  0  0
  2 18  1  0  0  0  0
  3 38  1  0  0  0  0
  4  2  1  0  0  0  0
  5  3  1  0  0  0  0
  7  6  1  0  0  0  0
  7  4  1  0  0  0  0
  8  7  2  0  0  0  0
  9 11  2  0  0  0  0
  9  8  1  0  0  0  0
 10  9  1  0  0  0  0
 11 13  1  0  0  0  0
 12 11  1  0  0  0  0
 13  5  1  0  0  0  0
 13  6  2  0  0  0  0
 14 16  1  0  0  0  0
 14 17  1  0  0  0  0
 15 14  1  0  0  0  0
 18 19  1  0  0  0  0
 18 14  1  0  0  0  0
 20 18  1  0  0  0  0
 20 21  1  0  0  0  0
 22 20  1  0  0  0  0
 23 20  1  0  0  0  0
 24 27  1  0  0  0  0
 24 26  1  0  0  0  0
 25 24  1  0  0  0  0
 28 29  1  0  0  0  0
 28 24  1  0  0  0  0
 28  2  1  0  0  0  0
 30 28  1  0  0  0  0
 31 30  1  0  0  0  0
 32 30  1  0  0  0  0
 33 30  1  0  0  0  0
 34 38  1  0  0  0  0
 34 37  1  0  0  0  0
 35 34  1  0  0  0  0
 36 34  1  0  0  0  0
 38 39  1  0  0  0  0
 38 40  1  0  0  0  0
 40 42  1  0  0  0  0
 40 41  1  0  0  0  0
 43 40  1  0  0  0  0
 44 45  1  0  0  0  0
 44 46  1  0  0  0  0
 47 44  1  0  0  0  0
 48 49  1  0  0  0  0
 48 44  1  0  0  0  0
 48  3  1  0  0  0  0
 50 48  1  0  0  0  0
 51 50  1  0  0  0  0
 52 50  1  0  0  0  0
 53 50  1  0  0  0  0
M  END
