1,62,63
q = -1.0, confidence = 0.01

 63 67  0  0  0  0  0  0  0  0999 V2000
   -0.3634    1.3763    0.0400 C   0  0  0  0  0  3  0  0  0  0  0  0
    0.6730    2.3422    0.0049 C   0  0  0  0  0  0  0  0  0  0  0  0
    0.4238    3.7186   -0.0021 C   0  0  0  0  0  0  0  0  0  0  0  0
    1.2523    4.4365   -0.0349 H   0  0  0  0  0  0  0  0  0  0  0  0
   -0.9161    4.1608    0.0329 C   0  0  0  0  0  0  0  0  0  0  0  0
   -1.2681    5.6097    0.0298 C   0  0  0  0  0  0  0  0  0  0  0  0
   -0.4339    7.8105   -0.0066 C   0  0  0  0  0  0  0  0  0  0  0  0
   -1.0357    8.0958   -0.8937 H   0  0  0  0  0  0  0  0  0  0  0  0
    0.5499    8.3123   -0.0313 H   0  0  0  0  0  0  0  0  0  0  0  0
   -0.9988    8.1112    0.8994 H   0  0  0  0  0  0  0  0  0  0  0  0
   -1.9835    3.2394    0.0705 C   0  0  0  0  0  0  0  0  0  0  0  0
   -3.0181    3.6061    0.0988 H   0  0  0  0  0  0  0  0  0  0  0  0
   -1.6904    1.8733    0.0707 C   0  0  0  0  0  0  0  0  0  0  0  0
   -2.9780   -1.3329   -1.3730 C   0  0  0  0  0  0  0  0  0  0  0  0
   -3.8318   -0.5593   -2.1826 C   0  0  0  0  0  0  0  0  0  0  0  0
   -4.0157    0.4942   -1.9263 H   0  0  0  0  0  0  0  0  0  0  0  0
   -4.4357   -1.1452   -3.3060 C   0  0  0  0  0  0  0  0  0  0  0  0
   -5.1068   -0.5442   -3.9383 H   0  0  0  0  0  0  0  0  0  0  0  0
   -4.1841   -2.4891   -3.6239 C   0  0  0  0  0  0  0  0  0  0  0  0
   -4.6585   -2.9429   -4.5073 H   0  0  0  0  0  0  0  0  0  0  0  0
   -3.3222   -3.2548   -2.8197 C   0  0  0  0  0  0  0  0  0  0  0  0
   -3.1172   -4.3058   -3.0729 H   0  0  0  0  0  0  0  0  0  0  0  0
   -2.7143   -2.6815   -1.6953 C   0  0  0  0  0  0  0  0  0  0  0  0
   -2.0250   -3.2736   -1.0726 H   0  0  0  0  0  0  0  0  0  0  0  0
   -2.9223   -1.4098    1.5209 C   0  0  0  0  0  0  0  0  0  0  0  0
   -4.3193   -1.3520    1.7064 C   0  0  0  0  0  0  0  0  0  0  0  0
   -4.9543   -0.8427    0.9653 H   0  0  0  0  0  0  0  0  0  0  0  0
   -4.8898   -1.9453    2.8394 C   0  0  0  0  0  0  0  0  0  0  0  0
   -5.9786   -1.8982    2.9924 H   0  0  0  0  0  0  0  0  0  0  0  0
   -4.0743   -2.6053    3.7762 C   0  0  0  0  0  0  0  0  0  0  0  0
   -4.5288   -3.0760    4.6613 H   0  0  0  0  0  0  0  0  0  0  0  0
   -2.6856   -2.6691    3.5852 C   0  0  0  0  0  0  0  0  0  0  0  0
   -2.0490   -3.1901    4.3159 H   0  0  0  0  0  0  0  0  0  0  0  0
   -2.1027   -2.0654    2.4605 C   0  0  0  0  0  0  0  0  0  0  0  0
   -1.0155   -2.1125    2.2925 H   0  0  0  0  0  0  0  0  0  0  0  0
    3.1632   -0.1612    1.3447 C   0  0  0  0  0  0  0  0  0  0  0  0
    3.4451    0.8154    2.3203 C   0  0  0  0  0  0  0  0  0  0  0  0
    3.0331    1.8290    2.2100 H   0  0  0  0  0  0  0  0  0  0  0  0
    4.2584    0.4851    3.4147 C   0  0  0  0  0  0  0  0  0  0  0  0
    4.4872    1.2494    4.1729 H   0  0  0  0  0  0  0  0  0  0  0  0
    4.7759   -0.8137    3.5438 C   0  0  0  0  0  0  0  0  0  0  0  0
    5.4089   -1.0698    4.4070 H   0  0  0  0  0  0  0  0  0  0  0  0
    4.4846   -1.7875    2.5736 C   0  0  0  0  0  0  0  0  0  0  0  0
    4.8810   -2.8091    2.6733 H   0  0  0  0  0  0  0  0  0  0  0  0
    3.6814   -1.4687    1.4707 C   0  0  0  0  0  0  0  0  0  0  0  0
    3.4557   -2.2454    0.7222 H   0  0  0  0  0  0  0  0  0  0  0  0
    2.9904   -0.2060   -1.5407 C   0  0  0  0  0  0  0  0  0  0  0  0
    4.2974    0.2928   -1.7225 C   0  0  0  0  0  0  0  0  0  0  0  0
    4.7646    0.9122   -0.9416 H   0  0  0  0  0  0  0  0  0  0  0  0
    4.9936   -0.0077   -2.8999 C   0  0  0  0  0  0  0  0  0  0  0  0
    6.0121    0.3819   -3.0482 H   0  0  0  0  0  0  0  0  0  0  0  0
    4.3957   -0.8120   -3.8865 C   0  0  0  0  0  0  0  0  0  0  0  0
    4.9506   -1.0525   -4.8062 H   0  0  0  0  0  0  0  0  0  0  0  0
    3.0988   -1.3142   -3.7003 C   0  0  0  0  0  0  0  0  0  0  0  0
    2.6356   -1.9513   -4.4684 H   0  0  0  0  0  0  0  0  0  0  0  0
    2.3890   -1.0086   -2.5297 C   0  0  0  0  0  0  0  0  0  0  0  0
    1.3758   -1.4050   -2.3631 H   0  0  0  0  0  0  0  0  0  0  0  0
   -2.7302    0.9563    0.0999 O   0  0  0  0  0  0  0  0  0  0  0  0
    1.9847    1.8943   -0.0174 O   0  0  0  0  0  0  0  0  0  0  0  0
   -0.1655    6.4071   -0.0000 O   0  0  0  0  0  0  0  0  0  0  0  0
   -2.4052    6.0530    0.0511 O   0  0  0  0  0  0  0  0  0  0  0  0
   -2.1364   -0.6299    0.0784 P   0  0  0  0  0  0  0  0  0  0  0  0
    2.0459    0.1995   -0.0415 P   0  0  0  0  0  0  0  0  0  0  0  0
  1 13  1  0  0  0  0
  2  1  2  0  0  0  0
  3  2  1  0  0  0  0
  3  5  2  0  0  0  0
  4  3  1  0  0  0  0
  5 11  1  0  0  0  0
  6  5  1  0  0  0  0
  6 61  2  0  0  0  0
  7 60  1  0  0  0  0
  7 10  1  0  0  0  0
  8  7  1  0  0  0  0
  9  7  1  0  0  0  0
 11 13  2  0  0  0  0
 11 12  1  0  0  0  0
 13 58  1  0  0  0  0
 14 62  1  0  0  0  0
 15 16  1  0  0  0  0
 15 14  2  0  0  0  0
 17 15  1  0  0  0  0
 18 17  1  0  0  0  0
 19 17  2  0  0  0  0
 19 21  1  0  0  0  0
 20 19  1  0  0  0  0
 21 23  2  0  0  0  0
 22 21  1  0  0  0  0
 23 14  1  0  0  0  0
 23 24  1  0  0  0  0
 25 26  2  0  0  0  0
 25 34  1  0  0  0  0
 26 28  1  0  0  0  0
 27 26  1  0  0  0  0
 28 29  1  0  0  0  0
 28 30  2  0  0  0  0
 30 31  1  0  0  0  0
 32 30  1  0  0  0  0
 32 33  1  0  0  0  0
 34 32  2  0  0  0  0
 35 34  1  0  0  0  0
 36 45  2  0  0  0  0
 36 37  1  0  0  0  0
 37 39  2  0  0  0  0
 38 37  1  0  0  0  0
 39 41  1  0  0  0  0
 39 40  1  0  0  0  0
 41 42  1  0  0  0  0
 43 44  1  0  0  0  0
 43 41  2  0  0  0  0
 45 43  1  0  0  0  0
 46 45  1  0  0  0  0
 47 63  1  0  0  0  0
 48 47  1  0  0  0  0
 48 49  1  0  0  0  0
 50 48  2  0  0  0  0
 51 50  1  0  0  0  0
 52 54  2  0  0  0  0
 52 50  1  0  0  0  0
 53 52  1  0  0  0  0
 54 56  1  0  0  0  0
 55 54  1  0  0  0  0
 56 57  1  0  0  0  0
 56 47  2  0  0  0  0
 59  2  1  0  0  0  0
 60  6  1  0  0  0  0
 62 58  1  0  0  0  0
 62 25  1  0  0  0  0
 63 59  1  0  0  0  0
 63 36  1  0  0  0  0
M  END
