1,2,18
q = -1.0, confidence = 0.02

 72 72  0  0  0  0  0  0  0  0999 V2000
    2.2828    0.1298   -0.0899 P   0  0  0  0  0  0  0  0  0  0  0  0
   -2.2747    0.1534   -0.0920 P   0  0  0  0  0  0  0  0  0  0  0  0
    0.0156    2.0617   -1.3847 C   0  0  0  0  0  0  0  0  0  0  0  0
    1.2512    2.6566   -1.0123 C   0  0  0  0  0  0  0  0  0  0  0  0
    1.2426    3.9536   -0.4708 C   0  0  0  0  0  0  0  0  0  0  0  0
    2.1951    4.4370   -0.1982 H   0  0  0  0  0  0  0  0  0  0  0  0
    0.0286    4.6259   -0.2445 C   0  0  0  0  0  0  0  0  0  0  0  0
    0.0337    5.6483    0.1621 H   0  0  0  0  0  0  0  0  0  0  0  0
   -1.1923    3.9662   -0.4714 C   0  0  0  0  0  0  0  0  0  0  0  0
   -2.1399    4.4593   -0.1993 H   0  0  0  0  0  0  0  0  0  0  0  0
   -1.2139    2.6694   -1.0132 C   0  0  0  0  0  0  0  0  0  0  0  0
    2.4797    1.7803   -1.0554 C   0  0  0  0  0  0  0  0  0  0  0  0
    3.3775    2.3093   -0.6780 H   0  0  0  0  0  0  0  0  0  0  0  0
    2.7103    1.4608   -2.0930 H   0  0  0  0  0  0  0  0  0  0  0  0
   -2.4515    1.8063   -1.0576 C   0  0  0  0  0  0  0  0  0  0  0  0
   -2.6839    1.4894   -2.0955 H   0  0  0  0  0  0  0  0  0  0  0  0
   -3.3441    2.3451   -0.6817 H   0  0  0  0  0  0  0  0  0  0  0  0
    0.0087    0.6753   -1.8804 C   0  0  0  0  0  3  0  0  0  0  0  0
    0.8924    0.4224   -2.4919 H   0  0  0  0  0  0  0  0  0  0  0  0
   -0.8773    0.4312   -2.4921 H   0  0  0  0  0  0  0  0  0  0  0  0
    3.5021   -1.0299   -1.0225 C   0  0  0  0  0  0  0  0  0  0  0  0
    3.7632   -2.2694   -0.1491 C   0  0  0  0  0  0  0  0  0  0  0  0
    4.2931   -3.0364   -0.7532 H   0  0  0  0  0  0  0  0  0  0  0  0
    2.8163   -2.7190    0.2096 H   0  0  0  0  0  0  0  0  0  0  0  0
    4.3986   -2.0433    0.7286 H   0  0  0  0  0  0  0  0  0  0  0  0
    4.8309   -0.3748   -1.4350 C   0  0  0  0  0  0  0  0  0  0  0  0
    5.4418   -0.0509   -0.5739 H   0  0  0  0  0  0  0  0  0  0  0  0
    4.6773    0.4997   -2.0974 H   0  0  0  0  0  0  0  0  0  0  0  0
    5.4322   -1.1126   -2.0091 H   0  0  0  0  0  0  0  0  0  0  0  0
    2.7588   -1.4911   -2.2928 C   0  0  0  0  0  0  0  0  0  0  0  0
    2.5685   -0.6543   -2.9950 H   0  0  0  0  0  0  0  0  0  0  0  0
    1.7936   -1.9757   -2.0463 H   0  0  0  0  0  0  0  0  0  0  0  0
    3.3948   -2.2261   -2.8312 H   0  0  0  0  0  0  0  0  0  0  0  0
    2.9635    0.5454    1.6590 C   0  0  0  0  0  0  0  0  0  0  0  0
    2.6127   -0.6135    2.6110 C   0  0  0  0  0  0  0  0  0  0  0  0
    3.1801   -1.5345    2.3821 H   0  0  0  0  0  0  0  0  0  0  0  0
    1.5374   -0.8705    2.5649 H   0  0  0  0  0  0  0  0  0  0  0  0
    2.8654   -0.3155    3.6511 H   0  0  0  0  0  0  0  0  0  0  0  0
    4.4758    0.8154    1.6888 C   0  0  0  0  0  0  0  0  0  0  0  0
    4.7797    1.6126    0.9807 H   0  0  0  0  0  0  0  0  0  0  0  0
    5.0721   -0.0914    1.4728 H   0  0  0  0  0  0  0  0  0  0  0  0
    4.7599    1.1576    2.7070 H   0  0  0  0  0  0  0  0  0  0  0  0
    2.2354    1.8122    2.1472 C   0  0  0  0  0  0  0  0  0  0  0  0
    2.5225    2.0018    3.2032 H   0  0  0  0  0  0  0  0  0  0  0  0
    1.1352    1.6958    2.1098 H   0  0  0  0  0  0  0  0  0  0  0  0
    2.4987    2.7114    1.5601 H   0  0  0  0  0  0  0  0  0  0  0  0
   -3.5080   -0.9906   -1.0272 C   0  0  0  0  0  0  0  0  0  0  0  0
   -3.7946   -2.2239   -0.1533 C   0  0  0  0  0  0  0  0  0  0  0  0
   -4.3299   -2.9849   -0.7604 H   0  0  0  0  0  0  0  0  0  0  0  0
   -4.4344   -1.9867    0.7183 H   0  0  0  0  0  0  0  0  0  0  0  0
   -2.8576   -2.6860    0.2155 H   0  0  0  0  0  0  0  0  0  0  0  0
   -4.8245   -0.3156   -1.4469 C   0  0  0  0  0  0  0  0  0  0  0  0
   -4.6547    0.5513   -2.1151 H   0  0  0  0  0  0  0  0  0  0  0  0
   -5.4311    0.0250   -0.5892 H   0  0  0  0  0  0  0  0  0  0  0  0
   -5.4375   -1.0470   -2.0170 H   0  0  0  0  0  0  0  0  0  0  0  0
   -2.7663   -1.4669   -2.2930 C   0  0  0  0  0  0  0  0  0  0  0  0
   -1.8117   -1.9694   -2.0405 H   0  0  0  0  0  0  0  0  0  0  0  0
   -2.5557   -0.6343   -2.9943 H   0  0  0  0  0  0  0  0  0  0  0  0
   -3.4130   -2.1898   -2.8348 H   0  0  0  0  0  0  0  0  0  0  0  0
   -2.9544    0.5750    1.6561 C   0  0  0  0  0  0  0  0  0  0  0  0
   -2.6327   -0.5942    2.6059 C   0  0  0  0  0  0  0  0  0  0  0  0
   -1.5654   -0.8821    2.5559 H   0  0  0  0  0  0  0  0  0  0  0  0
   -3.2279   -1.4981    2.3793 H   0  0  0  0  0  0  0  0  0  0  0  0
   -2.8728   -0.2899    3.6471 H   0  0  0  0  0  0  0  0  0  0  0  0
   -4.4609    0.8763    1.6801 C   0  0  0  0  0  0  0  0  0  0  0  0
   -4.7428    1.2184    2.6990 H   0  0  0  0  0  0  0  0  0  0  0  0
   -5.0748   -0.0168    1.4562 H   0  0  0  0  0  0  0  0  0  0  0  0
   -4.7452    1.6837    0.9754 H   0  0  0  0  0  0  0  0  0  0  0  0
   -2.2014    1.8240    2.1522 C   0  0  0  0  0  0  0  0  0  0  0  0
   -2.4976    2.0224    3.2041 H   0  0  0  0  0  0  0  0  0  0  0  0
   -2.4333    2.7287    1.5604 H   0  0  0  0  0  0  0  0  0  0  0  0
   -1.1043    1.6787    2.1297 H   0  0  0  0  0  0  0  0  0  0  0  0
  1 34  1  0  0  0  0
  2 60  1  0  0  0  0
  3 11  2  0  0  0  0
  3  4  1  0  0  0  0
  4  5  2  0  0  0  0
  5  7  1  0  0  0  0
  5  6  1  0  0  0  0
  7  8  1  0  0  0  0
  9  7  2  0  0  0  0
  9 10  1  0  0  0  0
 11  9  1  0  0  0  0
 12  4  1  0  0  0  0
 12 13  1  0  0  0  0
 12  1  1  0  0  0  0
 14 12  1  0  0  0  0
 15 11  1  0  0  0  0
 15 17  1  0  0  0  0
 15  2  1  0  0  0  0
 16 15  1  0  0  0  0
 18  3  1  0  0  0  0
 19 18  1  0  0  0  0
 20 18  1  0  0  0  0
 21 22  1  0  0  0  0
 21  1  1  0  0  0  0
 22 24  1  0  0  0  0
 22 25  1  0  0  0  0
 23 22  1  0  0  0  0
 26 21  1  0  0  0  0
 26 27  1  0  0  0  0
 28 26  1  0  0  0  0
 29 26  1  0  0  0  0
 30 32  1  0  0  0  0
 30 21  1  0  0  0  0
 31 30  1  0  0  0  0
 33 30  1  0  0  0  0
 34 39  1  0  0  0  0
 34 43  1  0  0  0  0
 34 35  1  0  0  0  0
 35 38  1  0  0  0  0
 36 35  1  0  0  0  0
 37 35  1  0  0  0  0
 39 42  1  0  0  0  0
 40 39  1  0  0  0  0
 41 39  1  0  0  0  0
 43 44  1  0  0  0  0
 45 43  1  0  0  0  0
 46 43  1  0  0  0  0
 47 48  1  0  0  0  0
 47  2  1  0  0  0  0
 48 51  1  0  0  0  0
 48 50  1  0  0  0  0
 49 48  1  0  0  0  0
 52 47  1  0  0  0  0
 52 54  1  0  0  0  0
 53 52  1  0  0  0  0
 55 52  1  0  0  0  0
 56 57  1  0  0  0  0
 56 47  1  0  0  0  0
 58 56  1  0  0  0  0
 59 56  1  0  0  0  0
 60 65  1  0  0  0  0
 60 69  1  0  0  0  0
 60 61  1  0  0  0  0
 61 64  1  0  0  0  0
 62 61  1  0  0  0  0
 63 61  1  0  0  0  0
 65 66  1  0  0  0  0
 67 65  1  0  0  0  0
 68 65  1  0  0  0  0
 69 70  1  0  0  0  0
 71 69  1  0  0  0  0
 72 69  1  0  0  0  0
M  END
