1,3,37
q = -1.0

 69 73  0  0  0  0  0  0  0  0999 V2000
    2.1843    0.5376   -0.0467 P   0  0  0  0  0  0  0  0  0  0  0  0
    2.3623    0.4911    1.6487 O   0  0  0  0  0  0  0  0  0  0  0  0
    0.0000    0.0001    1.6027 C   0  0  0  0  0  3  0  0  0  0  0  0
    1.1849    0.2456    2.3329 C   0  0  0  0  0  0  0  0  0  0  0  0
    1.2000    0.2486    3.7380 C   0  0  0  0  0  0  0  0  0  0  0  0
    2.1399    0.4473    4.2714 H   0  0  0  0  0  0  0  0  0  0  0  0
    0.0000    0.0000    4.4250 C   0  0  0  0  0  0  0  0  0  0  0  0
    0.0001   -0.0000    5.5255 H   0  0  0  0  0  0  0  0  0  0  0  0
    2.7355    2.2379   -0.4759 C   0  0  0  0  0  0  0  0  0  0  0  0
    3.7548    2.3717   -0.0593 H   0  0  0  0  0  0  0  0  0  0  0  0
    2.6872    2.4003   -2.0308 C   0  0  0  0  0  0  0  0  0  0  0  0
    3.6998    2.5288   -2.4606 H   0  0  0  0  0  0  0  0  0  0  0  0
    2.2342    1.5026   -2.5068 H   0  0  0  0  0  0  0  0  0  0  0  0
    1.7574    3.6052   -2.2880 C   0  0  0  0  0  0  0  0  0  0  0  0
    1.2272    3.5189   -3.2569 H   0  0  0  0  0  0  0  0  0  0  0  0
    2.3432    4.5497   -2.3066 H   0  0  0  0  0  0  0  0  0  0  0  0
    0.8095    3.6035   -1.0816 C   0  0  0  0  0  0  0  0  0  0  0  0
    0.0640    2.7861   -1.1978 H   0  0  0  0  0  0  0  0  0  0  0  0
    0.2527    4.5531   -0.9496 H   0  0  0  0  0  0  0  0  0  0  0  0
    1.7393    3.2846    0.0966 C   0  0  0  0  0  0  0  0  0  0  0  0
    1.2015    2.9247    0.9978 H   0  0  0  0  0  0  0  0  0  0  0  0
    2.3062    4.1901    0.3983 H   0  0  0  0  0  0  0  0  0  0  0  0
    3.4980   -0.6276   -0.5870 C   0  0  0  0  0  0  0  0  0  0  0  0
    3.6081   -0.4314   -1.6734 H   0  0  0  0  0  0  0  0  0  0  0  0
    4.8526   -0.4525    0.1664 C   0  0  0  0  0  0  0  0  0  0  0  0
    5.6803   -0.4617   -0.5727 H   0  0  0  0  0  0  0  0  0  0  0  0
    4.9286    0.5020    0.7245 H   0  0  0  0  0  0  0  0  0  0  0  0
    3.0448   -2.0980   -0.3286 C   0  0  0  0  0  0  0  0  0  0  0  0
    2.2102   -2.1181    0.4053 H   0  0  0  0  0  0  0  0  0  0  0  0
    2.6588   -2.5748   -1.2499 H   0  0  0  0  0  0  0  0  0  0  0  0
    4.9461   -1.6792    1.0886 C   0  0  0  0  0  0  0  0  0  0  0  0
    5.9863   -1.9107    1.3935 H   0  0  0  0  0  0  0  0  0  0  0  0
    4.3570   -1.4907    2.0109 H   0  0  0  0  0  0  0  0  0  0  0  0
    4.2803   -2.7917    0.2682 C   0  0  0  0  0  0  0  0  0  0  0  0
    4.0218   -3.6888    0.8656 H   0  0  0  0  0  0  0  0  0  0  0  0
    4.9650   -3.1220   -0.5433 H   0  0  0  0  0  0  0  0  0  0  0  0
   -2.1842   -0.5376   -0.0467 P   0  0  0  0  0  0  0  0  0  0  0  0
   -2.3623   -0.4909    1.6488 O   0  0  0  0  0  0  0  0  0  0  0  0
   -1.1849   -0.2455    2.3329 C   0  0  0  0  0  0  0  0  0  0  0  0
   -1.1999   -0.2485    3.7380 C   0  0  0  0  0  0  0  0  0  0  0  0
   -2.1398   -0.4472    4.2714 H   0  0  0  0  0  0  0  0  0  0  0  0
   -2.7353   -2.2379   -0.4758 C   0  0  0  0  0  0  0  0  0  0  0  0
   -3.7547   -2.3717   -0.0591 H   0  0  0  0  0  0  0  0  0  0  0  0
   -2.6872   -2.4004   -2.0307 C   0  0  0  0  0  0  0  0  0  0  0  0
   -3.6998   -2.5290   -2.4604 H   0  0  0  0  0  0  0  0  0  0  0  0
   -2.2342   -1.5027   -2.5068 H   0  0  0  0  0  0  0  0  0  0  0  0
   -1.7573   -3.6052   -2.2879 C   0  0  0  0  0  0  0  0  0  0  0  0
   -1.2271   -3.5189   -3.2567 H   0  0  0  0  0  0  0  0  0  0  0  0
   -2.3429   -4.5498   -2.3064 H   0  0  0  0  0  0  0  0  0  0  0  0
   -0.8093   -3.6034   -1.0815 C   0  0  0  0  0  0  0  0  0  0  0  0
   -0.0639   -2.7860   -1.1977 H   0  0  0  0  0  0  0  0  0  0  0  0
   -0.2525   -4.5529   -0.9494 H   0  0  0  0  0  0  0  0  0  0  0  0
   -1.7392   -3.2845    0.0967 C   0  0  0  0  0  0  0  0  0  0  0  0
   -1.2014   -2.9246    0.9979 H   0  0  0  0  0  0  0  0  0  0  0  0
   -2.3060   -4.1901    0.3985 H   0  0  0  0  0  0  0  0  0  0  0  0
   -3.4981    0.6276   -0.5870 C   0  0  0  0  0  0  0  0  0  0  0  0
   -3.6081    0.4314   -1.6734 H   0  0  0  0  0  0  0  0  0  0  0  0
   -4.8527    0.4524    0.1663 C   0  0  0  0  0  0  0  0  0  0  0  0
   -5.6803    0.4613   -0.5729 H   0  0  0  0  0  0  0  0  0  0  0  0
   -4.9285   -0.5021    0.7245 H   0  0  0  0  0  0  0  0  0  0  0  0
   -3.0450    2.0980   -0.3285 C   0  0  0  0  0  0  0  0  0  0  0  0
   -2.2105    2.1182    0.4055 H   0  0  0  0  0  0  0  0  0  0  0  0
   -2.6589    2.5748   -1.2498 H   0  0  0  0  0  0  0  0  0  0  0  0
   -4.9463    1.6791    1.0884 C   0  0  0  0  0  0  0  0  0  0  0  0
   -5.9867    1.9106    1.3931 H   0  0  0  0  0  0  0  0  0  0  0  0
   -4.3574    1.4907    2.0108 H   0  0  0  0  0  0  0  0  0  0  0  0
   -4.2806    2.7917    0.2680 C   0  0  0  0  0  0  0  0  0  0  0  0
   -4.0222    3.6888    0.8654 H   0  0  0  0  0  0  0  0  0  0  0  0
   -4.9652    3.1219   -0.5436 H   0  0  0  0  0  0  0  0  0  0  0  0
  1  2  1  0  0  0  0
  2  4  1  0  0  0  0
  3  4  2  0  0  0  0
  3 39  1  0  0  0  0
  4  5  1  0  0  0  0
  5  6  1  0  0  0  0
  5  7  2  0  0  0  0
  7  8  1  0  0  0  0
  9 10  1  0  0  0  0
  9  1  1  0  0  0  0
  9 20  1  0  0  0  0
 11  9  1  0  0  0  0
 12 11  1  0  0  0  0
 13 11  1  0  0  0  0
 14 11  1  0  0  0  0
 14 17  1  0  0  0  0
 15 14  1  0  0  0  0
 16 14  1  0  0  0  0
 17 19  1  0  0  0  0
 17 20  1  0  0  0  0
 18 17  1  0  0  0  0
 20 22  1  0  0  0  0
 20 21  1  0  0  0  0
 23 28  1  0  0  0  0
 23  1  1  0  0  0  0
 23 25  1  0  0  0  0
 24 23  1  0  0  0  0
 25 27  1  0  0  0  0
 25 31  1  0  0  0  0
 26 25  1  0  0  0  0
 28 34  1  0  0  0  0
 28 29  1  0  0  0  0
 30 28  1  0  0  0  0
 31 32  1  0  0  0  0
 31 33  1  0  0  0  0
 34 35  1  0  0  0  0
 34 31  1  0  0  0  0
 36 34  1  0  0  0  0
 37 38  1  0  0  0  0
 38 39  1  0  0  0  0
 39 40  2  0  0  0  0
 40 41  1  0  0  0  0
 40  7  1  0  0  0  0
 42 43  1  0  0  0  0
 42 37  1  0  0  0  0
 42 53  1  0  0  0  0
 44 42  1  0  0  0  0
 45 44  1  0  0  0  0
 46 44  1  0  0  0  0
 47 44  1  0  0  0  0
 47 50  1  0  0  0  0
 48 47  1  0  0  0  0
 49 47  1  0  0  0  0
 50 52  1  0  0  0  0
 50 53  1  0  0  0  0
 51 50  1  0  0  0  0
 53 55  1  0  0  0  0
 53 54  1  0  0  0  0
 56 61  1  0  0  0  0
 56 37  1  0  0  0  0
 56 58  1  0  0  0  0
 57 56  1  0  0  0  0
 58 60  1  0  0  0  0
 58 64  1  0  0  0  0
 59 58  1  0  0  0  0
 61 67  1  0  0  0  0
 61 62  1  0  0  0  0
 63 61  1  0  0  0  0
 64 65  1  0  0  0  0
 64 66  1  0  0  0  0
 67 68  1  0  0  0  0
 67 64  1  0  0  0  0
 69 67  1  0  0  0  0
M  END
