1,4,6
q = -1.0, confidence = 0.006

 58 58  0  0  0  0  0  0  0  0999 V2000
    1.5677   -1.3557    0.0569 P   0  0  0  0  0  0  0  0  0  0  0  0
    2.4420    0.1112    0.0702 O   0  0  0  0  0  0  0  0  0  0  0  0
    1.6663    1.2525    0.0097 C   0  0  0  0  0  0  0  0  0  0  0  0
   -2.4902    0.5658   -0.0616 P   0  0  0  0  0  0  0  0  0  0  0  0
   -1.9049    2.1698   -0.1265 O   0  0  0  0  0  0  0  0  0  0  0  0
    0.2595    1.1064   -0.0288 C   0  0  0  0  0  3  0  0  0  0  0  0
    4.1692    3.9682    0.0187 O   0  0  0  0  0  0  0  0  0  0  0  0
   -0.5316    2.2741   -0.0874 C   0  0  0  0  0  0  0  0  0  0  0  0
    0.0480    3.5583   -0.1072 C   0  0  0  0  0  0  0  0  0  0  0  0
   -0.5981    4.4461   -0.1524 H   0  0  0  0  0  0  0  0  0  0  0  0
    1.4365    3.6615   -0.0674 C   0  0  0  0  0  0  0  0  0  0  0  0
    1.9377    4.6407   -0.0796 H   0  0  0  0  0  0  0  0  0  0  0  0
    2.2877    2.5294   -0.0090 C   0  0  0  0  0  0  0  0  0  0  0  0
    3.7629    2.8072    0.0274 C   0  0  0  0  0  0  0  0  0  0  0  0
    4.7569    1.6608    0.0697 C   0  0  0  0  0  0  0  0  0  0  0  0
    4.5786    1.0073    0.9462 H   0  0  0  0  0  0  0  0  0  0  0  0
    5.7756    2.0872    0.1048 H   0  0  0  0  0  0  0  0  0  0  0  0
    4.6451    1.0109   -0.8215 H   0  0  0  0  0  0  0  0  0  0  0  0
    2.2173   -2.1897    1.5741 C   0  0  0  0  0  0  0  0  0  0  0  0
    3.3262   -2.1334    1.5064 H   0  0  0  0  0  0  0  0  0  0  0  0
    1.7493   -3.6522    1.5867 C   0  0  0  0  0  0  0  0  0  0  0  0
    2.0389   -4.1293    2.5452 H   0  0  0  0  0  0  0  0  0  0  0  0
    2.2025   -4.2459    0.7678 H   0  0  0  0  0  0  0  0  0  0  0  0
    0.6453   -3.7155    1.4833 H   0  0  0  0  0  0  0  0  0  0  0  0
    1.7424   -1.4067    2.8049 C   0  0  0  0  0  0  0  0  0  0  0  0
    2.1699   -1.8531    3.7258 H   0  0  0  0  0  0  0  0  0  0  0  0
    0.6364   -1.4396    2.8859 H   0  0  0  0  0  0  0  0  0  0  0  0
    2.0519   -0.3439    2.7614 H   0  0  0  0  0  0  0  0  0  0  0  0
    2.2821   -2.1991   -1.4287 C   0  0  0  0  0  0  0  0  0  0  0  0
    1.7548   -3.1798   -1.4333 H   0  0  0  0  0  0  0  0  0  0  0  0
    1.8640   -1.4084   -2.6767 C   0  0  0  0  0  0  0  0  0  0  0  0
    2.1926   -1.9391   -3.5931 H   0  0  0  0  0  0  0  0  0  0  0  0
    2.3255   -0.4000   -2.6802 H   0  0  0  0  0  0  0  0  0  0  0  0
    0.7642   -1.2772   -2.7224 H   0  0  0  0  0  0  0  0  0  0  0  0
    3.7968   -2.4116   -1.3387 C   0  0  0  0  0  0  0  0  0  0  0  0
    4.1669   -2.8926   -2.2673 H   0  0  0  0  0  0  0  0  0  0  0  0
    4.0844   -3.0628   -0.4899 H   0  0  0  0  0  0  0  0  0  0  0  0
    4.3261   -1.4437   -1.2266 H   0  0  0  0  0  0  0  0  0  0  0  0
   -3.5737    0.6272    1.4388 C   0  0  0  0  0  0  0  0  0  0  0  0
   -4.0278   -0.3890    1.4639 H   0  0  0  0  0  0  0  0  0  0  0  0
   -2.6760    0.7981    2.6727 C   0  0  0  0  0  0  0  0  0  0  0  0
   -3.2866    0.7587    3.5974 H   0  0  0  0  0  0  0  0  0  0  0  0
   -2.1517    1.7750    2.6493 H   0  0  0  0  0  0  0  0  0  0  0  0
   -1.9071    0.0014    2.7260 H   0  0  0  0  0  0  0  0  0  0  0  0
   -4.6656    1.6982    1.3439 C   0  0  0  0  0  0  0  0  0  0  0  0
   -5.2561    1.7212    2.2827 H   0  0  0  0  0  0  0  0  0  0  0  0
   -5.3720    1.5103    0.5113 H   0  0  0  0  0  0  0  0  0  0  0  0
   -4.2177    2.7020    1.1995 H   0  0  0  0  0  0  0  0  0  0  0  0
   -3.5702    0.4976   -1.5610 C   0  0  0  0  0  0  0  0  0  0  0  0
   -4.2201    1.3991   -1.5127 H   0  0  0  0  0  0  0  0  0  0  0  0
   -4.4164   -0.7831   -1.5190 C   0  0  0  0  0  0  0  0  0  0  0  0
   -4.9839   -0.8874   -2.4662 H   0  0  0  0  0  0  0  0  0  0  0  0
   -5.1508   -0.7745   -0.6890 H   0  0  0  0  0  0  0  0  0  0  0  0
   -3.7723   -1.6795   -1.3963 H   0  0  0  0  0  0  0  0  0  0  0  0
   -2.6819    0.5783   -2.8092 C   0  0  0  0  0  0  0  0  0  0  0  0
   -3.3124    0.6005   -3.7214 H   0  0  0  0  0  0  0  0  0  0  0  0
   -2.0149   -0.3061   -2.8717 H   0  0  0  0  0  0  0  0  0  0  0  0
   -2.0498    1.4879   -2.8053 H   0  0  0  0  0  0  0  0  0  0  0  0
  1  2  1  0  0  0  0
  1 19  1  0  0  0  0
  3  2  1  0  0  0  0
  4 39  1  0  0  0  0
  5  8  1  0  0  0  0
  5  4  1  0  0  0  0
  6  3  2  0  0  0  0
  7 14  2  0  0  0  0
  8  6  1  0  0  0  0
  9  8  2  0  0  0  0
  9 11  1  0  0  0  0
 10  9  1  0  0  0  0
 11 13  2  0  0  0  0
 12 11  1  0  0  0  0
 13  3  1  0  0  0  0
 13 14  1  0  0  0  0
 14 15  1  0  0  0  0
 15 17  1  0  0  0  0
 15 16  1  0  0  0  0
 18 15  1  0  0  0  0
 19 21  1  0  0  0  0
 19 25  1  0  0  0  0
 20 19  1  0  0  0  0
 21 22  1  0  0  0  0
 23 21  1  0  0  0  0
 24 21  1  0  0  0  0
 25 27  1  0  0  0  0
 25 26  1  0  0  0  0
 28 25  1  0  0  0  0
 29 35  1  0  0  0  0
 29  1  1  0  0  0  0
 30 29  1  0  0  0  0
 31 29  1  0  0  0  0
 32 31  1  0  0  0  0
 33 31  1  0  0  0  0
 34 31  1  0  0  0  0
 35 38  1  0  0  0  0
 35 37  1  0  0  0  0
 36 35  1  0  0  0  0
 39 40  1  0  0  0  0
 39 41  1  0  0  0  0
 41 44  1  0  0  0  0
 41 42  1  0  0  0  0
 43 41  1  0  0  0  0
 45 39  1  0  0  0  0
 45 46  1  0  0  0  0
 47 45  1  0  0  0  0
 48 45  1  0  0  0  0
 49 51  1  0  0  0  0
 49 50  1  0  0  0  0
 49  4  1  0  0  0  0
 51 54  1  0  0  0  0
 51 53  1  0  0  0  0
 52 51  1  0  0  0  0
 55 58  1  0  0  0  0
 55 49  1  0  0  0  0
 56 55  1  0  0  0  0
 57 55  1  0  0  0  0
M  END
