1,2,8
q = -1.0

 62 66  0  0  0  0  0  0  0  0999 V2000
   -1.9922   -0.4691   -0.1332 P   0  0  0  0  0  0  0  0  0  0  0  0
    2.4361    0.2188    0.0883 P   0  0  0  0  0  0  0  0  0  0  0  0
   -3.0161    5.1592    1.3908 O   0  0  0  0  0  0  0  0  0  0  0  0
   -2.4269    1.0962    0.3896 O   0  0  0  0  0  0  0  0  0  0  0  0
    2.3244    1.8787    0.4664 O   0  0  0  0  0  0  0  0  0  0  0  0
   -1.6073    3.3126    0.9284 C   0  0  0  0  0  0  0  0  0  0  0  0
   -1.3649    1.9573    0.5816 C   0  0  0  0  0  0  0  0  0  0  0  0
   -0.0527    1.4555    0.4145 C   0  0  0  0  0  3  0  0  0  0  0  0
    1.0329    2.3363    0.6108 C   0  0  0  0  0  0  0  0  0  0  0  0
    0.8314    3.6857    0.9610 C   0  0  0  0  0  0  0  0  0  0  0  0
    1.6983    4.3442    1.1104 H   0  0  0  0  0  0  0  0  0  0  0  0
   -0.4750    4.1456    1.1096 C   0  0  0  0  0  0  0  0  0  0  0  0
   -0.6853    5.1916    1.3779 H   0  0  0  0  0  0  0  0  0  0  0  0
   -2.9486    3.9622    1.1170 C   0  0  0  0  0  0  0  0  0  0  0  0
   -4.2204    3.1458    0.9794 C   0  0  0  0  0  0  0  0  0  0  0  0
   -4.2798    2.6545   -0.0115 H   0  0  0  0  0  0  0  0  0  0  0  0
   -5.0825    3.8194    1.1333 H   0  0  0  0  0  0  0  0  0  0  0  0
   -4.2385    2.3294    1.7297 H   0  0  0  0  0  0  0  0  0  0  0  0
   -2.9362   -1.5349    0.9923 C   0  0  0  0  0  0  0  0  0  0  0  0
   -4.0748   -1.0684    1.6809 C   0  0  0  0  0  0  0  0  0  0  0  0
   -4.4006   -0.0252    1.5582 H   0  0  0  0  0  0  0  0  0  0  0  0
   -4.7769   -1.9428    2.5231 C   0  0  0  0  0  0  0  0  0  0  0  0
   -5.6643   -1.5828    3.0655 H   0  0  0  0  0  0  0  0  0  0  0  0
   -4.3473   -3.2717    2.6763 C   0  0  0  0  0  0  0  0  0  0  0  0
   -4.9016   -3.9535    3.3393 H   0  0  0  0  0  0  0  0  0  0  0  0
   -3.2083   -3.7296    1.9935 C   0  0  0  0  0  0  0  0  0  0  0  0
   -2.8661   -4.7674    2.1230 H   0  0  0  0  0  0  0  0  0  0  0  0
   -2.4920   -2.8647    1.1531 C   0  0  0  0  0  0  0  0  0  0  0  0
   -1.5815   -3.2038    0.6280 H   0  0  0  0  0  0  0  0  0  0  0  0
   -2.8216   -0.5652   -1.7513 C   0  0  0  0  0  0  0  0  0  0  0  0
   -4.0818   -1.1708   -1.9252 C   0  0  0  0  0  0  0  0  0  0  0  0
   -4.5948   -1.6311   -1.0675 H   0  0  0  0  0  0  0  0  0  0  0  0
   -4.6748   -1.1873   -3.1962 C   0  0  0  0  0  0  0  0  0  0  0  0
   -5.6581   -1.6621   -3.3333 H   0  0  0  0  0  0  0  0  0  0  0  0
   -4.0157   -0.6036   -4.2899 C   0  0  0  0  0  0  0  0  0  0  0  0
   -4.4838   -0.6214   -5.2859 H   0  0  0  0  0  0  0  0  0  0  0  0
   -2.7557   -0.0054   -4.1185 C   0  0  0  0  0  0  0  0  0  0  0  0
   -2.2350    0.4435   -4.9775 H   0  0  0  0  0  0  0  0  0  0  0  0
   -2.1530    0.0086   -2.8544 C   0  0  0  0  0  0  0  0  0  0  0  0
   -1.1567    0.4575   -2.7121 H   0  0  0  0  0  0  0  0  0  0  0  0
    3.4353   -0.4301    1.4637 C   0  0  0  0  0  0  0  0  0  0  0  0
    2.7512   -0.8129    2.6373 C   0  0  0  0  0  0  0  0  0  0  0  0
    1.6524   -0.7396    2.6731 H   0  0  0  0  0  0  0  0  0  0  0  0
    3.4719   -1.2913    3.7390 C   0  0  0  0  0  0  0  0  0  0  0  0
    2.9385   -1.5897    4.6539 H   0  0  0  0  0  0  0  0  0  0  0  0
    4.8709   -1.4017    3.6690 C   0  0  0  0  0  0  0  0  0  0  0  0
    5.4349   -1.7859    4.5326 H   0  0  0  0  0  0  0  0  0  0  0  0
    5.5511   -1.0329    2.4971 C   0  0  0  0  0  0  0  0  0  0  0  0
    6.6461   -1.1267    2.4416 H   0  0  0  0  0  0  0  0  0  0  0  0
    4.8376   -0.5474    1.3917 C   0  0  0  0  0  0  0  0  0  0  0  0
    5.3673   -0.2628    0.4701 H   0  0  0  0  0  0  0  0  0  0  0  0
    3.5153    0.2199   -1.3714 C   0  0  0  0  0  0  0  0  0  0  0  0
    3.5382   -0.9447   -2.1683 C   0  0  0  0  0  0  0  0  0  0  0  0
    2.8826   -1.7953   -1.9120 H   0  0  0  0  0  0  0  0  0  0  0  0
    4.3789   -0.9904   -3.2896 C   0  0  0  0  0  0  0  0  0  0  0  0
    4.4002   -1.8951   -3.9158 H   0  0  0  0  0  0  0  0  0  0  0  0
    5.1792    0.1160   -3.6208 C   0  0  0  0  0  0  0  0  0  0  0  0
    5.8330    0.0758   -4.5053 H   0  0  0  0  0  0  0  0  0  0  0  0
    5.1392    1.2784   -2.8329 C   0  0  0  0  0  0  0  0  0  0  0  0
    5.7585    2.1482   -3.0999 H   0  0  0  0  0  0  0  0  0  0  0  0
    4.3074    1.3370   -1.7049 C   0  0  0  0  0  0  0  0  0  0  0  0
    4.2594    2.2443   -1.0850 H   0  0  0  0  0  0  0  0  0  0  0  0
  1  4  1  0  0  0  0
  1 19  1  0  0  0  0
  2  5  1  0  0  0  0
  2 41  1  0  0  0  0
  4  7  1  0  0  0  0
  5  9  1  0  0  0  0
  6 12  1  0  0  0  0
  6 14  1  0  0  0  0
  7  6  2  0  0  0  0
  8  7  1  0  0  0  0
  8  9  2  0  0  0  0
  9 10  1  0  0  0  0
 10 12  2  0  0  0  0
 10 11  1  0  0  0  0
 12 13  1  0  0  0  0
 14  3  2  0  0  0  0
 15 14  1  0  0  0  0
 15 17  1  0  0  0  0
 15 18  1  0  0  0  0
 16 15  1  0  0  0  0
 19 28  2  0  0  0  0
 19 20  1  0  0  0  0
 20 22  2  0  0  0  0
 21 20  1  0  0  0  0
 22 24  1  0  0  0  0
 22 23  1  0  0  0  0
 24 25  1  0  0  0  0
 26 27  1  0  0  0  0
 26 24  2  0  0  0  0
 28 26  1  0  0  0  0
 29 28  1  0  0  0  0
 30  1  1  0  0  0  0
 31 30  1  0  0  0  0
 31 32  1  0  0  0  0
 33 31  2  0  0  0  0
 34 33  1  0  0  0  0
 35 37  2  0  0  0  0
 35 33  1  0  0  0  0
 36 35  1  0  0  0  0
 37 39  1  0  0  0  0
 38 37  1  0  0  0  0
 39 40  1  0  0  0  0
 39 30  2  0  0  0  0
 41 42  1  0  0  0  0
 42 43  1  0  0  0  0
 42 44  2  0  0  0  0
 44 45  1  0  0  0  0
 46 44  1  0  0  0  0
 46 47  1  0  0  0  0
 48 46  2  0  0  0  0
 49 48  1  0  0  0  0
 50 41  2  0  0  0  0
 50 48  1  0  0  0  0
 51 50  1  0  0  0  0
 52  2  1  0  0  0  0
 53 54  1  0  0  0  0
 53 52  2  0  0  0  0
 55 53  1  0  0  0  0
 56 55  1  0  0  0  0
 57 55  2  0  0  0  0
 57 59  1  0  0  0  0
 58 57  1  0  0  0  0
 59 61  2  0  0  0  0
 60 59  1  0  0  0  0
 61 52  1  0  0  0  0
 61 62  1  0  0  0  0
M  END
