1,11,22
q = -1.0, confidence = 0.014

 70 70  0  0  0  0  0  0  0  0999 V2000
   -2.3567   -0.5468   -0.4180 P   0  0  0  0  0  0  0  0  0  0  0  0
   -2.2213   -2.2116    0.4215 C   0  0  0  0  0  0  0  0  0  0  0  0
   -3.4954   -0.8465   -1.9413 C   0  0  0  0  0  0  0  0  0  0  0  0
   -3.2898    0.5516    0.8581 C   0  0  0  0  0  0  0  0  0  0  0  0
   -4.6359   -1.8313   -1.6177 C   0  0  0  0  0  0  0  0  0  0  0  0
   -4.0577    0.4984   -2.4331 C   0  0  0  0  0  0  0  0  0  0  0  0
   -2.6697   -1.4590   -3.0849 C   0  0  0  0  0  0  0  0  0  0  0  0
   -2.4928    0.5075    2.1797 C   0  0  0  0  0  0  0  0  0  0  0  0
   -4.7095    0.0378    1.1578 C   0  0  0  0  0  0  0  0  0  0  0  0
   -3.3768    2.0042    0.3357 C   0  0  0  0  0  0  0  0  0  0  0  0
    2.4024   -0.2094   -0.2921 P   0  0  0  0  0  0  0  0  0  0  0  0
    2.2734   -0.2686    1.5669 C   0  0  0  0  0  0  0  0  0  0  0  0
    3.3410   -1.8280   -0.7622 C   0  0  0  0  0  0  0  0  0  0  0  0
    3.5430    1.2968   -0.6712 C   0  0  0  0  0  0  0  0  0  0  0  0
    2.6430   -3.0237   -0.0802 C   0  0  0  0  0  0  0  0  0  0  0  0
    4.8017   -1.8228   -0.2743 C   0  0  0  0  0  0  0  0  0  0  0  0
    3.3283   -2.0313   -2.2909 C   0  0  0  0  0  0  0  0  0  0  0  0
    2.7039    2.5798   -0.5832 C   0  0  0  0  0  0  0  0  0  0  0  0
    4.0951    1.1964   -2.1034 C   0  0  0  0  0  0  0  0  0  0  0  0
    4.6893    1.4255    0.3509 C   0  0  0  0  0  0  0  0  0  0  0  0
    0.0119   -3.4878    4.6070 O   0  0  0  0  0  0  0  0  0  0  0  0
    0.0382   -1.2919    1.0239 C   0  0  0  0  0  3  0  0  0  0  0  0
   -1.0350   -2.1550    1.3606 C   0  0  0  0  0  0  0  0  0  0  0  0
   -1.0269   -2.8896    2.5588 C   0  0  0  0  0  0  0  0  0  0  0  0
    0.0527   -2.7603    3.4528 C   0  0  0  0  0  0  0  0  0  0  0  0
    1.1200   -1.8969    3.1397 C   0  0  0  0  0  0  0  0  0  0  0  0
    1.1181   -1.1748    1.9310 C   0  0  0  0  0  0  0  0  0  0  0  0
   -3.1604   -2.5007    0.9344 H   0  0  0  0  0  0  0  0  0  0  0  0
   -2.0534   -2.9533   -0.3903 H   0  0  0  0  0  0  0  0  0  0  0  0
   -5.2987   -1.4872   -0.8056 H   0  0  0  0  0  0  0  0  0  0  0  0
   -4.2492   -2.8338   -1.3487 H   0  0  0  0  0  0  0  0  0  0  0  0
   -5.2617   -1.9580   -2.5267 H   0  0  0  0  0  0  0  0  0  0  0  0
   -4.5561    0.3419   -3.4129 H   0  0  0  0  0  0  0  0  0  0  0  0
   -3.2577    1.2512   -2.5801 H   0  0  0  0  0  0  0  0  0  0  0  0
   -4.8105    0.9214   -1.7438 H   0  0  0  0  0  0  0  0  0  0  0  0
   -3.3407   -1.6027   -3.9578 H   0  0  0  0  0  0  0  0  0  0  0  0
   -2.2526   -2.4495   -2.8272 H   0  0  0  0  0  0  0  0  0  0  0  0
   -1.8425   -0.7997   -3.4059 H   0  0  0  0  0  0  0  0  0  0  0  0
   -2.9759    1.2120    2.8886 H   0  0  0  0  0  0  0  0  0  0  0  0
   -1.4423    0.8169    2.0475 H   0  0  0  0  0  0  0  0  0  0  0  0
   -2.5054   -0.4977    2.6409 H   0  0  0  0  0  0  0  0  0  0  0  0
   -4.7243   -1.0177    1.4959 H   0  0  0  0  0  0  0  0  0  0  0  0
   -5.3980    0.1482    0.2990 H   0  0  0  0  0  0  0  0  0  0  0  0
   -5.1253    0.6495    1.9863 H   0  0  0  0  0  0  0  0  0  0  0  0
   -3.3976    2.7025    1.1958 H   0  0  0  0  0  0  0  0  0  0  0  0
   -4.2990    2.1737   -0.2495 H   0  0  0  0  0  0  0  0  0  0  0  0
   -2.5246    2.2984   -0.3024 H   0  0  0  0  0  0  0  0  0  0  0  0
    3.2274   -0.5660    2.0478 H   0  0  0  0  0  0  0  0  0  0  0  0
    2.0438    0.7763    1.8679 H   0  0  0  0  0  0  0  0  0  0  0  0
    3.1321   -3.9536   -0.4399 H   0  0  0  0  0  0  0  0  0  0  0  0
    1.5671   -3.0983   -0.3090 H   0  0  0  0  0  0  0  0  0  0  0  0
    2.7450   -2.9929    1.0207 H   0  0  0  0  0  0  0  0  0  0  0  0
    5.2363   -2.8265   -0.4664 H   0  0  0  0  0  0  0  0  0  0  0  0
    4.8851   -1.6358    0.8148 H   0  0  0  0  0  0  0  0  0  0  0  0
    5.4322   -1.0893   -0.8097 H   0  0  0  0  0  0  0  0  0  0  0  0
    3.9670   -1.3030   -2.8199 H   0  0  0  0  0  0  0  0  0  0  0  0
    2.3153   -1.9750   -2.7237 H   0  0  0  0  0  0  0  0  0  0  0  0
    3.7246   -3.0438   -2.5160 H   0  0  0  0  0  0  0  0  0  0  0  0
    3.3526    3.4386   -0.8560 H   0  0  0  0  0  0  0  0  0  0  0  0
    2.3377    2.7600    0.4424 H   0  0  0  0  0  0  0  0  0  0  0  0
    1.8428    2.5769   -1.2747 H   0  0  0  0  0  0  0  0  0  0  0  0
    3.2864    1.0384   -2.8452 H   0  0  0  0  0  0  0  0  0  0  0  0
    4.8472    0.3946   -2.2222 H   0  0  0  0  0  0  0  0  0  0  0  0
    4.5944    2.1547   -2.3584 H   0  0  0  0  0  0  0  0  0  0  0  0
    5.2837    2.3284    0.0952 H   0  0  0  0  0  0  0  0  0  0  0  0
    5.3811    0.5663    0.3578 H   0  0  0  0  0  0  0  0  0  0  0  0
    4.3050    1.5747    1.3787 H   0  0  0  0  0  0  0  0  0  0  0  0
    0.8119   -3.2808    5.1243 H   0  0  0  0  0  0  0  0  0  0  0  0
   -1.8571   -3.5584    2.8314 H   0  0  0  0  0  0  0  0  0  0  0  0
    1.9609   -1.7938    3.8476 H   0  0  0  0  0  0  0  0  0  0  0  0
  1  2  1  0  0  0  0
  1  4  1  0  0  0  0
  2 28  1  0  0  0  0
  2 23  1  0  0  0  0
  3  5  1  0  0  0  0
  3  1  1  0  0  0  0
  4  9  1  0  0  0  0
  4  8  1  0  0  0  0
  5 31  1  0  0  0  0
  5 30  1  0  0  0  0
  6  3  1  0  0  0  0
  6 35  1  0  0  0  0
  7 37  1  0  0  0  0
  7  3  1  0  0  0  0
  8 41  1  0  0  0  0
  8 39  1  0  0  0  0
  9 42  1  0  0  0  0
  9 44  1  0  0  0  0
 10  4  1  0  0  0  0
 10 45  1  0  0  0  0
 11 12  1  0  0  0  0
 12 49  1  0  0  0  0
 12 27  1  0  0  0  0
 12 48  1  0  0  0  0
 13 11  1  0  0  0  0
 13 16  1  0  0  0  0
 13 15  1  0  0  0  0
 14 18  1  0  0  0  0
 14 11  1  0  0  0  0
 14 20  1  0  0  0  0
 15 52  1  0  0  0  0
 16 54  1  0  0  0  0
 17 13  1  0  0  0  0
 18 60  1  0  0  0  0
 19 14  1  0  0  0  0
 20 66  1  0  0  0  0
 20 67  1  0  0  0  0
 21 68  1  0  0  0  0
 22 23  2  0  0  0  0
 22 27  1  0  0  0  0
 23 24  1  0  0  0  0
 24 69  1  0  0  0  0
 24 25  2  0  0  0  0
 25 21  1  0  0  0  0
 26 25  1  0  0  0  0
 26 70  1  0  0  0  0
 27 26  2  0  0  0  0
 29  2  1  0  0  0  0
 32  5  1  0  0  0  0
 33  6  1  0  0  0  0
 34  6  1  0  0  0  0
 36  7  1  0  0  0  0
 38  7  1  0  0  0  0
 40  8  1  0  0  0  0
 43  9  1  0  0  0  0
 46 10  1  0  0  0  0
 47 10  1  0  0  0  0
 50 15  1  0  0  0  0
 51 15  1  0  0  0  0
 53 16  1  0  0  0  0
 55 16  1  0  0  0  0
 56 17  1  0  0  0  0
 57 17  1  0  0  0  0
 58 17  1  0  0  0  0
 59 18  1  0  0  0  0
 61 18  1  0  0  0  0
 62 19  1  0  0  0  0
 63 19  1  0  0  0  0
 64 19  1  0  0  0  0
 65 20  1  0  0  0  0
M  END
