2,3,18
q = -1.0, confidence = 0.006

 57 61  0  0  0  0  0  0  0  0999 V2000
    0.0006    5.9284    0.0001 Br  0  0  0  0  0  0  0  0  0  0  0  0
   -2.2404   -0.4227   -0.0001 P   0  0  0  0  0  0  0  0  0  0  0  0
    2.2405   -0.4230    0.0000 P   0  0  0  0  0  0  0  0  0  0  0  0
   -2.4142    1.2651    0.0000 O   0  0  0  0  0  0  0  0  0  0  0  0
    2.4147    1.2646   -0.0001 O   0  0  0  0  0  0  0  0  0  0  0  0
   -3.2176   -0.9260    1.4521 C   0  0  0  0  0  0  0  0  0  0  0  0
   -2.9876   -2.2128    1.9812 C   0  0  0  0  0  0  0  0  0  0  0  0
   -3.7464   -2.6490    3.0771 C   0  0  0  0  0  0  0  0  0  0  0  0
   -4.7144   -1.8065    3.6478 C   0  0  0  0  0  0  0  0  0  0  0  0
   -4.9268   -0.5197    3.1255 C   0  0  0  0  0  0  0  0  0  0  0  0
   -4.1816   -0.0733    2.0248 C   0  0  0  0  0  0  0  0  0  0  0  0
   -3.2180   -0.9260   -1.4519 C   0  0  0  0  0  0  0  0  0  0  0  0
   -2.9883   -2.2129   -1.9809 C   0  0  0  0  0  0  0  0  0  0  0  0
   -3.7473   -2.6491   -3.0768 C   0  0  0  0  0  0  0  0  0  0  0  0
   -4.7152   -1.8064   -3.6474 C   0  0  0  0  0  0  0  0  0  0  0  0
   -4.9273   -0.5196   -3.1252 C   0  0  0  0  0  0  0  0  0  0  0  0
   -4.1819   -0.0732   -2.0246 C   0  0  0  0  0  0  0  0  0  0  0  0
    0.0002    1.2117   -0.0000 C   0  0  0  0  0  3  0  0  0  0  0  0
   -1.2072    1.9442    0.0000 C   0  0  0  0  0  0  0  0  0  0  0  0
   -1.2308    3.3482    0.0000 C   0  0  0  0  0  0  0  0  0  0  0  0
    0.0005    4.0234    0.0001 C   0  0  0  0  0  0  0  0  0  0  0  0
    1.2316    3.3480    0.0001 C   0  0  0  0  0  0  0  0  0  0  0  0
    1.2078    1.9440   -0.0000 C   0  0  0  0  0  0  0  0  0  0  0  0
    3.2177   -0.9266    1.4521 C   0  0  0  0  0  0  0  0  0  0  0  0
    4.1818   -0.0741    2.0248 C   0  0  0  0  0  0  0  0  0  0  0  0
    4.9270   -0.5207    3.1255 C   0  0  0  0  0  0  0  0  0  0  0  0
    4.7143   -1.8073    3.6479 C   0  0  0  0  0  0  0  0  0  0  0  0
    3.7461   -2.6496    3.0772 C   0  0  0  0  0  0  0  0  0  0  0  0
    2.9874   -2.2134    1.9812 C   0  0  0  0  0  0  0  0  0  0  0  0
    3.2176   -0.9266   -1.4522 C   0  0  0  0  0  0  0  0  0  0  0  0
    4.1810   -0.0737   -2.0255 C   0  0  0  0  0  0  0  0  0  0  0  0
    4.9259   -0.5201   -3.1264 C   0  0  0  0  0  0  0  0  0  0  0  0
    4.7138   -1.8071   -3.6483 C   0  0  0  0  0  0  0  0  0  0  0  0
    3.7463   -2.6498   -3.0770 C   0  0  0  0  0  0  0  0  0  0  0  0
    2.9878   -2.2137   -1.9808 C   0  0  0  0  0  0  0  0  0  0  0  0
   -2.2049   -2.8550    1.5419 H   0  0  0  0  0  0  0  0  0  0  0  0
   -3.5704   -3.6516    3.4952 H   0  0  0  0  0  0  0  0  0  0  0  0
   -5.3025   -2.1513    4.5120 H   0  0  0  0  0  0  0  0  0  0  0  0
   -5.6778    0.1438    3.5807 H   0  0  0  0  0  0  0  0  0  0  0  0
   -4.3331    0.9361    1.6152 H   0  0  0  0  0  0  0  0  0  0  0  0
   -2.2056   -2.8552   -1.5416 H   0  0  0  0  0  0  0  0  0  0  0  0
   -3.5716   -3.6518   -3.4947 H   0  0  0  0  0  0  0  0  0  0  0  0
   -5.3034   -2.1512   -4.5115 H   0  0  0  0  0  0  0  0  0  0  0  0
   -5.6782    0.1440   -3.5804 H   0  0  0  0  0  0  0  0  0  0  0  0
   -4.3332    0.9363   -1.6151 H   0  0  0  0  0  0  0  0  0  0  0  0
   -2.1848    3.8900    0.0000 H   0  0  0  0  0  0  0  0  0  0  0  0
    2.1858    3.8896    0.0001 H   0  0  0  0  0  0  0  0  0  0  0  0
    4.3336    0.9353    1.6151 H   0  0  0  0  0  0  0  0  0  0  0  0
    5.6781    0.1427    3.5807 H   0  0  0  0  0  0  0  0  0  0  0  0
    5.3023   -2.1522    4.5120 H   0  0  0  0  0  0  0  0  0  0  0  0
    3.5698   -3.6522    3.4953 H   0  0  0  0  0  0  0  0  0  0  0  0
    2.2045   -2.8554    1.5419 H   0  0  0  0  0  0  0  0  0  0  0  0
    4.3323    0.9359   -1.6163 H   0  0  0  0  0  0  0  0  0  0  0  0
    5.6765    0.1436   -3.5821 H   0  0  0  0  0  0  0  0  0  0  0  0
    5.3017   -2.1519   -4.5126 H   0  0  0  0  0  0  0  0  0  0  0  0
    3.5706   -3.6526   -3.4947 H   0  0  0  0  0  0  0  0  0  0  0  0
    2.2055   -2.8560   -1.5411 H   0  0  0  0  0  0  0  0  0  0  0  0
  2  4  1  0  0  0  0
  2  6  1  0  0  0  0
  3 24  1  0  0  0  0
  5 23  1  0  0  0  0
  5  3  1  0  0  0  0
  6  7  2  0  0  0  0
  6 11  1  0  0  0  0
  7  8  1  0  0  0  0
  8 37  1  0  0  0  0
  8  9  2  0  0  0  0
  9 38  1  0  0  0  0
 10 39  1  0  0  0  0
 10  9  1  0  0  0  0
 11 10  2  0  0  0  0
 12  2  1  0  0  0  0
 13 41  1  0  0  0  0
 13 12  1  0  0  0  0
 14 13  2  0  0  0  0
 15 16  2  0  0  0  0
 15 14  1  0  0  0  0
 16 17  1  0  0  0  0
 17 45  1  0  0  0  0
 17 12  2  0  0  0  0
 18 23  2  0  0  0  0
 18 19  1  0  0  0  0
 19  4  1  0  0  0  0
 19 20  2  0  0  0  0
 20 21  1  0  0  0  0
 21  1  1  0  0  0  0
 22 21  2  0  0  0  0
 22 47  1  0  0  0  0
 23 22  1  0  0  0  0
 24 29  2  0  0  0  0
 24 25  1  0  0  0  0
 25 26  2  0  0  0  0
 26 49  1  0  0  0  0
 26 27  1  0  0  0  0
 27 50  1  0  0  0  0
 28 51  1  0  0  0  0
 28 27  2  0  0  0  0
 29 28  1  0  0  0  0
 30  3  1  0  0  0  0
 31 53  1  0  0  0  0
 31 30  2  0  0  0  0
 32 31  1  0  0  0  0
 33 32  2  0  0  0  0
 33 34  1  0  0  0  0
 34 35  2  0  0  0  0
 35 57  1  0  0  0  0
 35 30  1  0  0  0  0
 36  7  1  0  0  0  0
 40 11  1  0  0  0  0
 42 14  1  0  0  0  0
 43 15  1  0  0  0  0
 44 16  1  0  0  0  0
 46 20  1  0  0  0  0
 48 25  1  0  0  0  0
 52 29  1  0  0  0  0
 54 32  1  0  0  0  0
 55 33  1  0  0  0  0
 56 34  1  0  0  0  0
M  END
