1,2,3
q = -1.0

 60 63  0  0  0  0  0  0  0  0999 V2000
   -2.3253   -0.8088   -0.7388 P   0  0  0  0  0  0  0  0  0  0  0  0
    2.2607   -0.8141   -0.9360 P   0  0  0  0  0  0  0  0  0  0  0  0
   -0.0862   -1.9495   -2.3221 C   0  0  0  0  0  3  0  0  0  0  0  0
   -0.1904   -1.2759   -3.2063 H   0  0  0  0  0  0  0  0  0  0  0  0
   -1.3223   -2.8531   -2.2309 C   0  0  0  0  0  0  0  0  0  0  0  0
   -1.3779   -3.5125   -3.1292 H   0  0  0  0  0  0  0  0  0  0  0  0
   -1.2211   -3.5328   -1.3564 H   0  0  0  0  0  0  0  0  0  0  0  0
   -2.6041   -2.0297   -2.1070 C   0  0  0  0  0  0  0  0  0  0  0  0
   -3.5242   -2.6301   -1.9566 H   0  0  0  0  0  0  0  0  0  0  0  0
   -2.7598   -1.4097   -3.0147 H   0  0  0  0  0  0  0  0  0  0  0  0
    1.2132   -2.7580   -2.4641 C   0  0  0  0  0  0  0  0  0  0  0  0
    1.2872   -3.4949   -1.6339 H   0  0  0  0  0  0  0  0  0  0  0  0
    1.1843   -3.3562   -3.4049 H   0  0  0  0  0  0  0  0  0  0  0  0
    2.4471   -1.8527   -2.4542 C   0  0  0  0  0  0  0  0  0  0  0  0
    2.4219   -1.1383   -3.3039 H   0  0  0  0  0  0  0  0  0  0  0  0
    3.4132   -2.3946   -2.5040 H   0  0  0  0  0  0  0  0  0  0  0  0
   -2.8598   -1.5998    0.8244 C   0  0  0  0  0  0  0  0  0  0  0  0
   -3.2656   -2.9469    0.9042 C   0  0  0  0  0  0  0  0  0  0  0  0
   -3.3116   -3.5732    0.0011 H   0  0  0  0  0  0  0  0  0  0  0  0
   -3.6183   -3.5026    2.1448 C   0  0  0  0  0  0  0  0  0  0  0  0
   -3.9353   -4.5553    2.1997 H   0  0  0  0  0  0  0  0  0  0  0  0
   -3.5689   -2.7186    3.3069 C   0  0  0  0  0  0  0  0  0  0  0  0
   -3.8464   -3.1559    4.2782 H   0  0  0  0  0  0  0  0  0  0  0  0
   -3.1625   -1.3755    3.2283 C   0  0  0  0  0  0  0  0  0  0  0  0
   -3.1203   -0.7565    4.1373 H   0  0  0  0  0  0  0  0  0  0  0  0
   -2.8017   -0.8124    1.9972 C   0  0  0  0  0  0  0  0  0  0  0  0
   -2.4742    0.2393    1.9397 H   0  0  0  0  0  0  0  0  0  0  0  0
   -3.5433    0.5265   -1.0263 C   0  0  0  0  0  0  0  0  0  0  0  0
   -4.9115    0.3040   -0.7648 C   0  0  0  0  0  0  0  0  0  0  0  0
   -5.2411   -0.6515   -0.3275 H   0  0  0  0  0  0  0  0  0  0  0  0
   -5.8478    1.3077   -1.0476 C   0  0  0  0  0  0  0  0  0  0  0  0
   -6.9149    1.1342   -0.8409 H   0  0  0  0  0  0  0  0  0  0  0  0
   -5.4226    2.5356   -1.5828 C   0  0  0  0  0  0  0  0  0  0  0  0
   -6.1589    3.3259   -1.7953 H   0  0  0  0  0  0  0  0  0  0  0  0
   -4.0601    2.7602   -1.8304 C   0  0  0  0  0  0  0  0  0  0  0  0
   -3.7200    3.7294   -2.2251 H   0  0  0  0  0  0  0  0  0  0  0  0
   -3.1159    1.7602   -1.5525 C   0  0  0  0  0  0  0  0  0  0  0  0
   -2.0438    1.9579   -1.7022 H   0  0  0  0  0  0  0  0  0  0  0  0
    2.9130   -1.7849    0.4758 C   0  0  0  0  0  0  0  0  0  0  0  0
    3.6497   -2.9763    0.3274 C   0  0  0  0  0  0  0  0  0  0  0  0
    3.8673   -3.3791   -0.6731 H   0  0  0  0  0  0  0  0  0  0  0  0
    4.1134   -3.6624    1.4619 C   0  0  0  0  0  0  0  0  0  0  0  0
    4.6872   -4.5936    1.3391 H   0  0  0  0  0  0  0  0  0  0  0  0
    3.8463   -3.1628    2.7452 C   0  0  0  0  0  0  0  0  0  0  0  0
    4.2105   -3.7024    3.6326 H   0  0  0  0  0  0  0  0  0  0  0  0
    3.1075   -1.9766    2.8959 C   0  0  0  0  0  0  0  0  0  0  0  0
    2.8884   -1.5861    3.9012 H   0  0  0  0  0  0  0  0  0  0  0  0
    2.6351   -1.2895    1.7702 C   0  0  0  0  0  0  0  0  0  0  0  0
    2.0353   -0.3720    1.8846 H   0  0  0  0  0  0  0  0  0  0  0  0
    3.3891    0.6177   -1.0725 C   0  0  0  0  0  0  0  0  0  0  0  0
    4.7876    0.4401   -1.0052 C   0  0  0  0  0  0  0  0  0  0  0  0
    5.2105   -0.5640   -0.8428 H   0  0  0  0  0  0  0  0  0  0  0  0
    5.6367    1.5480   -1.1260 C   0  0  0  0  0  0  0  0  0  0  0  0
    6.7276    1.4099   -1.0745 H   0  0  0  0  0  0  0  0  0  0  0  0
    5.0949    2.8341   -1.2979 C   0  0  0  0  0  0  0  0  0  0  0  0
    5.7645    3.7040   -1.3804 H   0  0  0  0  0  0  0  0  0  0  0  0
    3.7043    3.0103   -1.3501 C   0  0  0  0  0  0  0  0  0  0  0  0
    3.2737    4.0167   -1.4614 H   0  0  0  0  0  0  0  0  0  0  0  0
    2.8446    1.9056   -1.2414 C   0  0  0  0  0  0  0  0  0  0  0  0
    1.7535    2.0586   -1.2525 H   0  0  0  0  0  0  0  0  0  0  0  0
  1 17  1  0  0  0  0
  2 39  1  0  0  0  0
  3  5  1  0  0  0  0
  4  3  1  0  0  0  0
  5  8  1  0  0  0  0
  5  7  1  0  0  0  0
  6  5  1  0  0  0  0
  8  9  1  0  0  0  0
  8  1  1  0  0  0  0
 10  8  1  0  0  0  0
 11 14  1  0  0  0  0
 11  3  1  0  0  0  0
 11 12  1  0  0  0  0
 13 11  1  0  0  0  0
 14  2  1  0  0  0  0
 15 14  1  0  0  0  0
 16 14  1  0  0  0  0
 17 18  2  0  0  0  0
 17 26  1  0  0  0  0
 18 20  1  0  0  0  0
 19 18  1  0  0  0  0
 20 21  1  0  0  0  0
 20 22  2  0  0  0  0
 22 23  1  0  0  0  0
 24 22  1  0  0  0  0
 24 25  1  0  0  0  0
 26 24  2  0  0  0  0
 27 26  1  0  0  0  0
 28 29  1  0  0  0  0
 28  1  1  0  0  0  0
 29 30  1  0  0  0  0
 31 32  1  0  0  0  0
 31 29  2  0  0  0  0
 33 31  1  0  0  0  0
 34 33  1  0  0  0  0
 35 33  2  0  0  0  0
 35 37  1  0  0  0  0
 36 35  1  0  0  0  0
 37 28  2  0  0  0  0
 38 37  1  0  0  0  0
 39 48  1  0  0  0  0
 40 39  2  0  0  0  0
 40 42  1  0  0  0  0
 41 40  1  0  0  0  0
 42 44  2  0  0  0  0
 43 42  1  0  0  0  0
 44 46  1  0  0  0  0
 44 45  1  0  0  0  0
 46 47  1  0  0  0  0
 48 49  1  0  0  0  0
 48 46  2  0  0  0  0
 50 51  1  0  0  0  0
 50  2  1  0  0  0  0
 51 52  1  0  0  0  0
 53 54  1  0  0  0  0
 53 51  2  0  0  0  0
 55 53  1  0  0  0  0
 56 55  1  0  0  0  0
 57 55  2  0  0  0  0
 57 59  1  0  0  0  0
 58 57  1  0  0  0  0
 59 50  2  0  0  0  0
 60 59  1  0  0  0  0
M  END
