1,2,3
q = -1.0, confidence = 0.0

 60 60  0  0  0  0  0  0  0  0999 V2000
   -2.4863    0.0168    0.3921 P   0  0  1  0  0  0  0  0  0  0  0  0
    2.0531   -0.0510   -0.1156 P   0  0  0  0  0  0  0  0  0  0  0  0
   -0.2582    1.7196   -0.3105 C   0  0  0  0  0  3  0  0  0  0  0  0
   -1.4679    2.4798   -0.2595 C   0  0  0  0  0  0  0  0  0  0  0  0
   -1.4511    3.8870   -0.3039 C   0  0  0  0  0  0  0  0  0  0  0  0
   -2.3971    4.4490   -0.2407 H   0  0  0  0  0  0  0  0  0  0  0  0
   -0.2386    4.5780   -0.4379 C   0  0  0  0  0  0  0  0  0  0  0  0
   -0.2279    5.6786   -0.4620 H   0  0  0  0  0  0  0  0  0  0  0  0
    0.9586    3.8580   -0.5612 C   0  0  0  0  0  0  0  0  0  0  0  0
    1.9093    4.3979   -0.7015 H   0  0  0  0  0  0  0  0  0  0  0  0
    0.9525    2.4512   -0.5147 C   0  0  0  0  0  0  0  0  0  0  0  0
   -2.7907    1.7456   -0.2169 C   0  0  0  0  0  0  0  0  0  0  0  0
   -3.2028    1.6601   -1.2465 H   0  0  0  0  0  0  0  0  0  0  0  0
   -3.5607    2.2640    0.3920 H   0  0  0  0  0  0  0  0  0  0  0  0
    2.2380    1.6891   -0.7483 C   0  0  0  0  0  0  0  0  0  0  0  0
    3.1313    2.1941   -0.3248 H   0  0  0  0  0  0  0  0  0  0  0  0
    2.4194    1.6057   -1.8416 H   0  0  0  0  0  0  0  0  0  0  0  0
   -2.8988    0.1292    2.1874 C   0  0  0  0  0  0  0  0  0  0  0  0
   -3.9623    0.3906    2.3600 H   0  0  0  0  0  0  0  0  0  0  0  0
   -2.2510    0.9173    2.6175 H   0  0  0  0  0  0  0  0  0  0  0  0
   -2.6574   -0.8263    2.6892 H   0  0  0  0  0  0  0  0  0  0  0  0
   -3.8435   -1.0564   -0.3749 C   0  0  0  0  0  0  0  0  0  0  0  0
   -3.8450   -2.4153    0.3462 C   0  0  0  0  0  0  0  0  0  0  0  0
   -4.1416   -2.3204    1.4101 H   0  0  0  0  0  0  0  0  0  0  0  0
   -2.8543   -2.9082    0.3043 H   0  0  0  0  0  0  0  0  0  0  0  0
   -4.5785   -3.0913   -0.1424 H   0  0  0  0  0  0  0  0  0  0  0  0
   -5.2213   -0.3876   -0.2466 C   0  0  0  0  0  0  0  0  0  0  0  0
   -5.9985   -1.0489   -0.6858 H   0  0  0  0  0  0  0  0  0  0  0  0
   -5.2691    0.5797   -0.7852 H   0  0  0  0  0  0  0  0  0  0  0  0
   -5.5038   -0.2095    0.8110 H   0  0  0  0  0  0  0  0  0  0  0  0
   -3.4708   -1.2508   -1.8545 C   0  0  0  0  0  0  0  0  0  0  0  0
   -2.4672   -1.7109   -1.9528 H   0  0  0  0  0  0  0  0  0  0  0  0
   -3.4537   -0.2898   -2.4080 H   0  0  0  0  0  0  0  0  0  0  0  0
   -4.2164   -1.9097   -2.3481 H   0  0  0  0  0  0  0  0  0  0  0  0
    2.8600   -0.0130    1.6157 C   0  0  0  0  0  0  0  0  0  0  0  0
    2.5131   -1.3130    2.3634 C   0  0  0  0  0  0  0  0  0  0  0  0
    2.9100   -1.2540    3.3994 H   0  0  0  0  0  0  0  0  0  0  0  0
    2.9487   -2.2115    1.8878 H   0  0  0  0  0  0  0  0  0  0  0  0
    1.4152   -1.4501    2.4155 H   0  0  0  0  0  0  0  0  0  0  0  0
    4.3805    0.1959    1.5800 C   0  0  0  0  0  0  0  0  0  0  0  0
    4.6715    1.0909    0.9934 H   0  0  0  0  0  0  0  0  0  0  0  0
    4.9149   -0.6816    1.1666 H   0  0  0  0  0  0  0  0  0  0  0  0
    4.7525    0.3474    2.6160 H   0  0  0  0  0  0  0  0  0  0  0  0
    2.1888    1.1613    2.3568 C   0  0  0  0  0  0  0  0  0  0  0  0
    1.0846    1.0574    2.3410 H   0  0  0  0  0  0  0  0  0  0  0  0
    2.4427    2.1466    1.9194 H   0  0  0  0  0  0  0  0  0  0  0  0
    2.5312    1.1616    3.4135 H   0  0  0  0  0  0  0  0  0  0  0  0
    3.0398   -1.1056   -1.3638 C   0  0  0  0  0  0  0  0  0  0  0  0
    3.2565   -2.5209   -0.8033 C   0  0  0  0  0  0  0  0  0  0  0  0
    2.3105   -2.9818   -0.4584 H   0  0  0  0  0  0  0  0  0  0  0  0
    3.9790   -2.5312    0.0362 H   0  0  0  0  0  0  0  0  0  0  0  0
    3.6728   -3.1692   -1.6035 H   0  0  0  0  0  0  0  0  0  0  0  0
    4.3887   -0.4841   -1.7644 C   0  0  0  0  0  0  0  0  0  0  0  0
    5.0992   -0.4241   -0.9201 H   0  0  0  0  0  0  0  0  0  0  0  0
    4.2736    0.5315   -2.1917 H   0  0  0  0  0  0  0  0  0  0  0  0
    4.8583   -1.1156   -2.5488 H   0  0  0  0  0  0  0  0  0  0  0  0
    2.1279   -1.1907   -2.6048 C   0  0  0  0  0  0  0  0  0  0  0  0
    2.6160   -1.8223   -3.3775 H   0  0  0  0  0  0  0  0  0  0  0  0
    1.9402   -0.1944   -3.0541 H   0  0  0  0  0  0  0  0  0  0  0  0
    1.1421   -1.6273   -2.3482 H   0  0  0  0  0  0  0  0  0  0  0  0
  1 22  1  6  0  0  0
  1 18  1  0  0  0  0
  2 35  1  0  0  0  0
  3  4  1  0  0  0  0
  4 12  1  0  0  0  0
  5  4  2  0  0  0  0
  5  6  1  0  0  0  0
  7  5  1  0  0  0  0
  8  7  1  0  0  0  0
  9 11  1  0  0  0  0
  9  7  2  0  0  0  0
 10  9  1  0  0  0  0
 11  3  2  0  0  0  0
 12 14  1  0  0  0  0
 12  1  1  0  0  0  0
 13 12  1  0  0  0  0
 15 11  1  0  0  0  0
 15 16  1  0  0  0  0
 15  2  1  0  0  0  0
 17 15  1  0  0  0  0
 18 19  1  0  0  0  0
 18 20  1  0  0  0  0
 18 21  1  0  0  0  0
 22 27  1  0  0  0  0
 22 23  1  0  0  0  0
 23 24  1  0  0  0  0
 25 23  1  0  0  0  0
 26 23  1  0  0  0  0
 27 30  1  0  0  0  0
 28 27  1  0  0  0  0
 29 27  1  0  0  0  0
 31 22  1  0  0  0  0
 32 31  1  0  0  0  0
 33 31  1  0  0  0  0
 34 31  1  0  0  0  0
 35 44  1  0  0  0  0
 35 36  1  0  0  0  0
 36 39  1  0  0  0  0
 36 37  1  0  0  0  0
 38 36  1  0  0  0  0
 40 35  1  0  0  0  0
 40 43  1  0  0  0  0
 41 40  1  0  0  0  0
 42 40  1  0  0  0  0
 44 47  1  0  0  0  0
 45 44  1  0  0  0  0
 46 44  1  0  0  0  0
 48 49  1  0  0  0  0
 48  2  1  0  0  0  0
 49 50  1  0  0  0  0
 49 51  1  0  0  0  0
 52 49  1  0  0  0  0
 53 48  1  0  0  0  0
 53 54  1  0  0  0  0
 55 53  1  0  0  0  0
 56 53  1  0  0  0  0
 57 60  1  0  0  0  0
 57 48  1  0  0  0  0
 58 57  1  0  0  0  0
 59 57  1  0  0  0  0
M  END
