1,2,3
q = -1.0

 66 67  0  0  0  0  0  0  0  0999 V2000
   -2.3321   -0.9621   -0.1595 P   0  0  0  0  0  0  0  0  0  0  0  0
    1.1728    1.8894   -0.1816 P   0  0  0  0  0  0  0  0  0  0  0  0
   -0.3189    0.0726   -2.0126 C   0  0  0  0  0  3  0  0  0  0  0  0
   -1.1719   -0.3461   -2.5759 H   0  0  0  0  0  0  0  0  0  0  0  0
    0.1632    0.8473   -2.6311 H   0  0  0  0  0  0  0  0  0  0  0  0
    0.5937   -0.9341   -1.4506 C   0  0  0  0  0  0  0  0  0  0  0  0
    1.9407   -0.6135   -1.1552 C   0  0  0  0  0  0  0  0  0  0  0  0
    2.8198   -1.6071   -0.6165 C   0  0  0  0  0  0  0  0  0  0  0  0
    4.2083   -1.3802   -0.3622 C   0  0  0  0  0  0  0  0  0  0  0  0
    4.6501   -0.4038   -0.6105 H   0  0  0  0  0  0  0  0  0  0  0  0
    5.0237   -2.3711    0.1681 C   0  0  0  0  0  0  0  0  0  0  0  0
    6.0907   -2.1634    0.3424 H   0  0  0  0  0  0  0  0  0  0  0  0
    4.4952   -3.6511    0.4778 C   0  0  0  0  0  0  0  0  0  0  0  0
    5.1483   -4.4314    0.8966 H   0  0  0  0  0  0  0  0  0  0  0  0
    3.1513   -3.9093    0.2456 C   0  0  0  0  0  0  0  0  0  0  0  0
    2.7252   -4.8971    0.4836 H   0  0  0  0  0  0  0  0  0  0  0  0
    2.2880   -2.9151   -0.2954 C   0  0  0  0  0  0  0  0  0  0  0  0
    0.8950   -3.1600   -0.4756 C   0  0  0  0  0  0  0  0  0  0  0  0
    0.4846   -4.1282   -0.1439 H   0  0  0  0  0  0  0  0  0  0  0  0
    0.0545   -2.2057   -1.0241 C   0  0  0  0  0  0  0  0  0  0  0  0
   -1.4411   -2.3778   -1.0706 C   0  0  0  0  0  0  0  0  0  0  0  0
   -1.7524   -3.3494   -0.6380 H   0  0  0  0  0  0  0  0  0  0  0  0
   -1.8238   -2.3443   -2.1131 H   0  0  0  0  0  0  0  0  0  0  0  0
    2.3210    0.8393   -1.2731 C   0  0  0  0  0  0  0  0  0  0  0  0
    2.1886    1.2258   -2.3051 H   0  0  0  0  0  0  0  0  0  0  0  0
    3.3681    1.0470   -0.9865 H   0  0  0  0  0  0  0  0  0  0  0  0
   -2.8008   -1.7958    1.4555 C   0  0  0  0  0  0  0  0  0  0  0  0
   -3.2727   -2.7603    1.1623 H   0  0  0  0  0  0  0  0  0  0  0  0
   -3.9103   -0.7919   -1.1695 C   0  0  0  0  0  0  0  0  0  0  0  0
   -3.4908   -0.7087   -2.1980 H   0  0  0  0  0  0  0  0  0  0  0  0
   -4.6261    0.5293   -0.8631 C   0  0  0  0  0  0  0  0  0  0  0  0
   -5.4298    0.7143   -1.6060 H   0  0  0  0  0  0  0  0  0  0  0  0
   -3.9124    1.3778   -0.8948 H   0  0  0  0  0  0  0  0  0  0  0  0
   -5.0954    0.5249    0.1407 H   0  0  0  0  0  0  0  0  0  0  0  0
   -4.8356   -2.0114   -1.1195 C   0  0  0  0  0  0  0  0  0  0  0  0
   -5.2916   -2.1376   -0.1165 H   0  0  0  0  0  0  0  0  0  0  0  0
   -4.3063   -2.9523   -1.3726 H   0  0  0  0  0  0  0  0  0  0  0  0
   -5.6689   -1.8946   -1.8440 H   0  0  0  0  0  0  0  0  0  0  0  0
   -1.5265   -2.0844    2.2597 C   0  0  0  0  0  0  0  0  0  0  0  0
   -1.0299   -1.1363    2.5495 H   0  0  0  0  0  0  0  0  0  0  0  0
   -0.7868   -2.6799    1.6899 H   0  0  0  0  0  0  0  0  0  0  0  0
   -1.7791   -2.6409    3.1862 H   0  0  0  0  0  0  0  0  0  0  0  0
   -3.8026   -0.9760    2.2744 C   0  0  0  0  0  0  0  0  0  0  0  0
   -3.9978   -1.4818    3.2431 H   0  0  0  0  0  0  0  0  0  0  0  0
   -4.7759   -0.8564    1.7607 H   0  0  0  0  0  0  0  0  0  0  0  0
   -3.4076    0.0340    2.5020 H   0  0  0  0  0  0  0  0  0  0  0  0
    2.0522    1.9621    1.4767 C   0  0  0  0  0  0  0  0  0  0  0  0
    1.3765    2.6191    2.0682 H   0  0  0  0  0  0  0  0  0  0  0  0
    1.3287    3.6272   -0.8753 C   0  0  0  0  0  0  0  0  0  0  0  0
    2.4146    3.8409   -0.9909 H   0  0  0  0  0  0  0  0  0  0  0  0
    3.4487    2.5891    1.4355 C   0  0  0  0  0  0  0  0  0  0  0  0
    3.8696    2.6433    2.4612 H   0  0  0  0  0  0  0  0  0  0  0  0
    3.4497    3.6174    1.0225 H   0  0  0  0  0  0  0  0  0  0  0  0
    4.1518    1.9760    0.8344 H   0  0  0  0  0  0  0  0  0  0  0  0
    2.0619    0.5766    2.1361 C   0  0  0  0  0  0  0  0  0  0  0  0
    2.7728   -0.1084    1.6335 H   0  0  0  0  0  0  0  0  0  0  0  0
    1.0588    0.1072    2.0927 H   0  0  0  0  0  0  0  0  0  0  0  0
    2.3694    0.6633    3.1988 H   0  0  0  0  0  0  0  0  0  0  0  0
    0.6486    3.6986   -2.2482 C   0  0  0  0  0  0  0  0  0  0  0  0
   -0.4197    3.4086   -2.1673 H   0  0  0  0  0  0  0  0  0  0  0  0
    1.1245    3.0315   -2.9943 H   0  0  0  0  0  0  0  0  0  0  0  0
    0.6993    4.7323   -2.6487 H   0  0  0  0  0  0  0  0  0  0  0  0
    0.7046    4.6330    0.1002 C   0  0  0  0  0  0  0  0  0  0  0  0
    0.7141    5.6518   -0.3398 H   0  0  0  0  0  0  0  0  0  0  0  0
    1.2438    4.6822    1.0665 H   0  0  0  0  0  0  0  0  0  0  0  0
   -0.3517    4.3658    0.3137 H   0  0  0  0  0  0  0  0  0  0  0  0
  1 27  1  0  0  0  0
  2 47  1  0  0  0  0
  3  6  1  0  0  0  0
  4  3  1  0  0  0  0
  5  3  1  0  0  0  0
  6  7  2  0  0  0  0
  6 20  1  0  0  0  0
  7  8  1  0  0  0  0
  8  9  2  0  0  0  0
  8 17  1  0  0  0  0
  9 11  1  0  0  0  0
 10  9  1  0  0  0  0
 11 12  1  0  0  0  0
 11 13  2  0  0  0  0
 13 14  1  0  0  0  0
 15 13  1  0  0  0  0
 15 16  1  0  0  0  0
 17 15  2  0  0  0  0
 18 17  1  0  0  0  0
 18 19  1  0  0  0  0
 20 18  2  0  0  0  0
 21 20  1  0  0  0  0
 21 22  1  0  0  0  0
 21  1  1  0  0  0  0
 23 21  1  0  0  0  0
 24  7  1  0  0  0  0
 24 26  1  0  0  0  0
 24  2  1  0  0  0  0
 25 24  1  0  0  0  0
 27 39  1  0  0  0  0
 27 43  1  0  0  0  0
 28 27  1  0  0  0  0
 29 35  1  0  0  0  0
 29 31  1  0  0  0  0
 29  1  1  0  0  0  0
 30 29  1  0  0  0  0
 31 34  1  0  0  0  0
 32 31  1  0  0  0  0
 33 31  1  0  0  0  0
 35 36  1  0  0  0  0
 37 35  1  0  0  0  0
 38 35  1  0  0  0  0
 39 40  1  0  0  0  0
 39 42  1  0  0  0  0
 41 39  1  0  0  0  0
 43 46  1  0  0  0  0
 43 44  1  0  0  0  0
 45 43  1  0  0  0  0
 47 48  1  0  0  0  0
 47 55  1  0  0  0  0
 49  2  1  0  0  0  0
 49 63  1  0  0  0  0
 50 49  1  0  0  0  0
 51 47  1  0  0  0  0
 51 52  1  0  0  0  0
 53 51  1  0  0  0  0
 54 51  1  0  0  0  0
 55 58  1  0  0  0  0
 56 55  1  0  0  0  0
 57 55  1  0  0  0  0
 59 60  1  0  0  0  0
 59 49  1  0  0  0  0
 61 59  1  0  0  0  0
 62 59  1  0  0  0  0
 63 66  1  0  0  0  0
 63 65  1  0  0  0  0
 64 63  1  0  0  0  0
M  END
