1,2,7
q = 0.0, confidence = 0.988

 74 76  0  0  1  0  0  0  0  0999 V2000
    1.6992    0.5237    0.6428 P   0  0  0  0  0  0  0  0  0  0  0  0
   -1.5464   -0.4198    0.9838 P   0  0  0  0  0  0  0  0  0  0  0  0
   -2.2822    1.2592   -0.9486 C   0  0  0  0  0  0  0  0  0  0  0  0
   -2.8647    0.3678   -0.0152 C   0  0  0  0  0  0  0  0  0  0  0  0
   -1.6625    0.6202    2.5650 C   0  0  0  0  0  0  0  0  0  0  0  0
   -0.7841    0.3113    3.1641 H   0  0  0  0  0  0  0  0  0  0  0  0
   -0.2877    0.0146   -2.1733 C   0  0  1  0  0  3  0  0  0  0  0  0
    3.5186    0.1449    0.2634 C   0  0  0  0  0  0  0  0  0  0  0  0
    4.0001    1.0968    0.5828 H   0  0  0  0  0  0  0  0  0  0  0  0
    1.7161    0.8194    2.5088 C   0  0  0  0  0  0  0  0  0  0  0  0
    0.7707    1.3794    2.6381 H   0  0  0  0  0  0  0  0  0  0  0  0
    1.6045   -0.5029    3.2822 C   0  0  0  0  0  0  0  0  0  0  0  0
    2.5812   -1.0135    3.3711 H   0  0  0  0  0  0  0  0  0  0  0  0
    0.9174   -1.2116    2.7829 H   0  0  0  0  0  0  0  0  0  0  0  0
    1.2353   -0.3144    4.3122 H   0  0  0  0  0  0  0  0  0  0  0  0
    1.4768    2.1894   -0.1360 C   0  0  0  0  0  0  0  0  0  0  0  0
    0.9456    0.0334   -2.8960 C   0  0  0  0  0  0  0  0  0  0  0  0
    1.5612    0.9435   -2.8487 H   0  0  0  0  0  0  0  0  0  0  0  0
    0.2832    2.3571   -0.8935 C   0  0  0  0  0  0  0  0  0  0  0  0
   -1.0673   -1.1883   -2.2941 C   0  0  0  0  0  3  0  0  0  0  0  0
   -2.0819   -1.2177   -1.8706 H   0  0  0  0  0  0  0  0  0  0  0  0
    0.5780   -2.2129   -3.7762 C   0  0  0  0  0  0  0  0  0  0  0  0
    0.9165   -3.0622   -4.3876 H   0  0  0  0  0  0  0  0  0  0  0  0
    3.7851   -0.0373   -1.2299 C   0  0  0  0  0  0  0  0  0  0  0  0
    4.8767   -0.1506   -1.3957 H   0  0  0  0  0  0  0  0  0  0  0  0
    3.4407    0.8318   -1.8212 H   0  0  0  0  0  0  0  0  0  0  0  0
    3.2810   -0.9469   -1.6111 H   0  0  0  0  0  0  0  0  0  0  0  0
   -2.2321   -2.1001    1.5051 C   0  0  0  0  0  0  0  0  0  0  0  0
   -3.2045   -1.8284    1.9726 H   0  0  0  0  0  0  0  0  0  0  0  0
    4.1257   -1.0005    1.0782 C   0  0  0  0  0  0  0  0  0  0  0  0
    3.5620   -1.9416    0.9207 H   0  0  0  0  0  0  0  0  0  0  0  0
    4.1591   -0.7857    2.1621 H   0  0  0  0  0  0  0  0  0  0  0  0
    5.1710   -1.1667    0.7435 H   0  0  0  0  0  0  0  0  0  0  0  0
   -0.6965    1.1221   -1.1410 B   0  0  0  0  0  0  0  0  0  0  0  0
    2.8393    1.7137    3.0440 C   0  0  0  0  0  0  0  0  0  0  0  0
    2.7009    1.8569    4.1366 H   0  0  0  0  0  0  0  0  0  0  0  0
    2.8316    2.7173    2.5791 H   0  0  0  0  0  0  0  0  0  0  0  0
    3.8432    1.2663    2.9014 H   0  0  0  0  0  0  0  0  0  0  0  0
   -1.5608    2.1142    2.2278 C   0  0  0  0  0  0  0  0  0  0  0  0
   -2.4851    2.4664    1.7290 H   0  0  0  0  0  0  0  0  0  0  0  0
   -0.7211    2.3530    1.5479 H   0  0  0  0  0  0  0  0  0  0  0  0
   -1.4301    2.7017    3.1602 H   0  0  0  0  0  0  0  0  0  0  0  0
    2.4144    3.2381   -0.0146 C   0  0  0  0  0  0  0  0  0  0  0  0
    3.3570    3.0892    0.5328 H   0  0  0  0  0  0  0  0  0  0  0  0
   -0.6370   -2.2730   -3.0873 C   0  0  0  0  0  0  0  0  0  0  0  0
   -1.2667   -3.1734   -3.1579 H   0  0  0  0  0  0  0  0  0  0  0  0
    0.0451    3.6382   -1.4448 C   0  0  0  0  0  0  0  0  0  0  0  0
   -0.8776    3.8117   -2.0195 H   0  0  0  0  0  0  0  0  0  0  0  0
    2.1573    4.4884   -0.5940 C   0  0  0  0  0  0  0  0  0  0  0  0
    2.8893    5.3038   -0.4905 H   0  0  0  0  0  0  0  0  0  0  0  0
   -4.5523    1.9515   -1.5627 C   0  0  0  0  0  0  0  0  0  0  0  0
   -5.2186    2.5773   -2.1769 H   0  0  0  0  0  0  0  0  0  0  0  0
   -4.2593    0.2306    0.1278 C   0  0  0  0  0  0  0  0  0  0  0  0
   -4.6904   -0.4942    0.8360 H   0  0  0  0  0  0  0  0  0  0  0  0
   -2.9234    0.3474    3.3938 C   0  0  0  0  0  0  0  0  0  0  0  0
   -2.9354    1.0311    4.2685 H   0  0  0  0  0  0  0  0  0  0  0  0
   -2.9719   -0.6864    3.7856 H   0  0  0  0  0  0  0  0  0  0  0  0
   -3.8442    0.5509    2.8108 H   0  0  0  0  0  0  0  0  0  0  0  0
   -3.1605    2.0577   -1.7136 C   0  0  0  0  0  0  0  0  0  0  0  0
   -2.7567    2.7515   -2.4679 H   0  0  0  0  0  0  0  0  0  0  0  0
   -5.1055    1.0309   -0.6543 C   0  0  0  0  0  0  0  0  0  0  0  0
   -6.1980    0.9363   -0.5582 H   0  0  0  0  0  0  0  0  0  0  0  0
    0.9594    4.6906   -1.2990 C   0  0  0  0  0  0  0  0  0  0  0  0
    0.7451    5.6725   -1.7492 H   0  0  0  0  0  0  0  0  0  0  0  0
   -2.5133   -3.0126    0.3080 C   0  0  0  0  0  0  0  0  0  0  0  0
   -1.5723   -3.2880   -0.2084 H   0  0  0  0  0  0  0  0  0  0  0  0
   -3.1959   -2.5387   -0.4245 H   0  0  0  0  0  0  0  0  0  0  0  0
   -2.9956   -3.9472    0.6629 H   0  0  0  0  0  0  0  0  0  0  0  0
    1.3579   -1.0399   -3.6903 C   0  0  0  0  0  0  0  0  0  0  0  0
    2.3066   -0.9732   -4.2459 H   0  0  0  0  0  0  0  0  0  0  0  0
   -1.3505   -2.7897    2.5488 C   0  0  0  0  0  0  0  0  0  0  0  0
   -1.8330   -3.7307    2.8857 H   0  0  0  0  0  0  0  0  0  0  0  0
   -1.1785   -2.1631    3.4465 H   0  0  0  0  0  0  0  0  0  0  0  0
   -0.3659   -3.0527    2.1097 H   0  0  0  0  0  0  0  0  0  0  0  0
  1 10  1  0  0  0  0
  2 28  1  0  0  0  0
  2  5  1  0  0  0  0
  3  4  1  0  0  0  0
  4 53  2  0  0  0  0
  4  2  1  0  0  0  0
  5  6  1  0  0  0  0
  5 55  1  0  0  0  0
  7 34  1  1  0  0  0
  8  9  1  0  0  0  0
  8  1  1  0  0  0  0
  8 30  1  0  0  0  0
 10 11  1  0  0  0  0
 10 35  1  0  0  0  0
 10 12  1  0  0  0  0
 12 13  1  0  0  0  0
 12 15  1  0  0  0  0
 14 12  1  0  0  0  0
 16 43  1  0  0  0  0
 16  1  1  0  0  0  0
 17 18  1  0  0  0  0
 17  7  1  0  0  0  0
 19 16  2  0  0  0  0
 20  7  1  0  0  0  0
 20 21  1  0  0  0  0
 22 69  1  0  0  0  0
 22 45  2  0  0  0  0
 23 22  1  0  0  0  0
 24  8  1  0  0  0  0
 25 24  1  0  0  0  0
 26 24  1  0  0  0  0
 27 24  1  0  0  0  0
 28 29  1  0  0  0  0
 28 71  1  0  0  0  0
 30 32  1  0  0  0  0
 31 30  1  0  0  0  0
 33 30  1  0  0  0  0
 34  3  1  0  0  0  0
 34 19  1  0  0  0  0
 35 36  1  0  0  0  0
 37 35  1  0  0  0  0
 38 35  1  0  0  0  0
 39  5  1  0  0  0  0
 39 42  1  0  0  0  0
 40 39  1  0  0  0  0
 41 39  1  0  0  0  0
 43 44  1  0  0  0  0
 45 20  1  0  0  0  0
 46 45  1  0  0  0  0
 47 63  2  0  0  0  0
 47 19  1  0  0  0  0
 48 47  1  0  0  0  0
 49 50  1  0  0  0  0
 49 43  2  0  0  0  0
 51 61  2  0  0  0  0
 52 51  1  0  0  0  0
 53 54  1  0  0  0  0
 55 57  1  0  0  0  0
 55 56  1  0  0  0  0
 58 55  1  0  0  0  0
 59 51  1  0  0  0  0
 59  3  2  0  0  0  0
 60 59  1  0  0  0  0
 61 62  1  0  0  0  0
 61 53  1  0  0  0  0
 63 49  1  0  0  0  0
 64 63  1  0  0  0  0
 65 68  1  0  0  0  0
 65 28  1  0  0  0  0
 66 65  1  0  0  0  0
 67 65  1  0  0  0  0
 69 17  2  0  0  0  0
 70 69  1  0  0  0  0
 71 72  1  0  0  0  0
 71 73  1  0  0  0  0
 74 71  1  0  0  0  0
M  END
