1,2,5
q = -1.0

 68 68  0  0  0  0  0  0  0  0999 V2000
   -2.1484   -0.2831   -0.0183 P   0  0  0  0  0  0  0  0  0  0  0  0
    2.1487   -0.2821    0.0187 P   0  0  0  0  0  0  0  0  0  0  0  0
   -2.3933    1.4035   -0.1442 O   0  0  0  0  0  0  0  0  0  0  0  0
    2.3933    1.4050    0.1372 O   0  0  0  0  0  0  0  0  0  0  0  0
   -0.0002    1.3431    0.0017 C   0  0  0  0  0  3  0  0  0  0  0  0
   -1.1963    2.0943   -0.0770 C   0  0  0  0  0  0  0  0  0  0  0  0
   -1.2152    3.4963   -0.0863 C   0  0  0  0  0  0  0  0  0  0  0  0
   -2.1790    4.0224   -0.1486 H   0  0  0  0  0  0  0  0  0  0  0  0
   -0.0001    4.2097   -0.0163 C   0  0  0  0  0  0  0  0  0  0  0  0
    1.2150    3.4972    0.0593 C   0  0  0  0  0  0  0  0  0  0  0  0
    2.1792    4.0240    0.1070 H   0  0  0  0  0  0  0  0  0  0  0  0
    1.1958    2.0949    0.0700 C   0  0  0  0  0  0  0  0  0  0  0  0
   -3.0668   -0.6299    1.5961 C   0  0  0  0  0  0  0  0  0  0  0  0
   -2.2857    0.1849    2.6496 C   0  0  0  0  0  0  0  0  0  0  0  0
   -2.7407    0.0108    3.6473 H   0  0  0  0  0  0  0  0  0  0  0  0
   -2.3166    1.2717    2.4398 H   0  0  0  0  0  0  0  0  0  0  0  0
   -1.2224   -0.1252    2.6950 H   0  0  0  0  0  0  0  0  0  0  0  0
   -2.9729   -2.1259    1.9422 C   0  0  0  0  0  0  0  0  0  0  0  0
   -3.3268   -2.2746    2.9843 H   0  0  0  0  0  0  0  0  0  0  0  0
   -1.9330   -2.5007    1.8632 H   0  0  0  0  0  0  0  0  0  0  0  0
   -3.6050   -2.7492    1.2825 H   0  0  0  0  0  0  0  0  0  0  0  0
   -4.5256   -0.1542    1.5479 C   0  0  0  0  0  0  0  0  0  0  0  0
   -4.9631   -0.2193    2.5670 H   0  0  0  0  0  0  0  0  0  0  0  0
   -5.1459   -0.7860    0.8828 H   0  0  0  0  0  0  0  0  0  0  0  0
   -4.5992    0.8983    1.2107 H   0  0  0  0  0  0  0  0  0  0  0  0
   -3.0333   -0.8696   -1.5808 C   0  0  0  0  0  0  0  0  0  0  0  0
   -1.9839   -0.6605   -2.6944 C   0  0  0  0  0  0  0  0  0  0  0  0
   -2.4330   -0.9273   -3.6747 H   0  0  0  0  0  0  0  0  0  0  0  0
   -1.0989   -1.3064   -2.5271 H   0  0  0  0  0  0  0  0  0  0  0  0
   -1.6438    0.3936   -2.7477 H   0  0  0  0  0  0  0  0  0  0  0  0
   -3.3629   -2.3669   -1.4644 C   0  0  0  0  0  0  0  0  0  0  0  0
   -3.6812   -2.7426   -2.4600 H   0  0  0  0  0  0  0  0  0  0  0  0
   -4.1962   -2.5538   -0.7592 H   0  0  0  0  0  0  0  0  0  0  0  0
   -2.4785   -2.9530   -1.1410 H   0  0  0  0  0  0  0  0  0  0  0  0
   -4.2880   -0.0382   -1.8894 C   0  0  0  0  0  0  0  0  0  0  0  0
   -4.6810   -0.3422   -2.8828 H   0  0  0  0  0  0  0  0  0  0  0  0
   -4.0579    1.0436   -1.9227 H   0  0  0  0  0  0  0  0  0  0  0  0
   -5.0935   -0.1987   -1.1490 H   0  0  0  0  0  0  0  0  0  0  0  0
    3.0380   -0.8624    1.5809 C   0  0  0  0  0  0  0  0  0  0  0  0
    1.9908   -0.6509    2.6963 C   0  0  0  0  0  0  0  0  0  0  0  0
    2.4424   -0.9137    3.6764 H   0  0  0  0  0  0  0  0  0  0  0  0
    1.1062   -1.2983    2.5331 H   0  0  0  0  0  0  0  0  0  0  0  0
    1.6495    0.4030    2.7467 H   0  0  0  0  0  0  0  0  0  0  0  0
    3.3690   -2.3598    1.4689 C   0  0  0  0  0  0  0  0  0  0  0  0
    3.6904   -2.7316    2.4649 H   0  0  0  0  0  0  0  0  0  0  0  0
    4.2008   -2.5482    0.7621 H   0  0  0  0  0  0  0  0  0  0  0  0
    2.4845   -2.9480    1.1498 H   0  0  0  0  0  0  0  0  0  0  0  0
    4.2923   -0.0286    1.8838 C   0  0  0  0  0  0  0  0  0  0  0  0
    4.6879   -0.3285    2.8775 H   0  0  0  0  0  0  0  0  0  0  0  0
    4.0611    1.0531    1.9138 H   0  0  0  0  0  0  0  0  0  0  0  0
    5.0965   -0.1907    1.1422 H   0  0  0  0  0  0  0  0  0  0  0  0
    3.0626   -0.6346   -1.5970 C   0  0  0  0  0  0  0  0  0  0  0  0
    2.2796    0.1773   -2.6512 C   0  0  0  0  0  0  0  0  0  0  0  0
    2.7322   -0.0003   -3.6494 H   0  0  0  0  0  0  0  0  0  0  0  0
    2.3116    1.2647   -2.4450 H   0  0  0  0  0  0  0  0  0  0  0  0
    1.2161   -0.1323   -2.6931 H   0  0  0  0  0  0  0  0  0  0  0  0
    2.9672   -2.1317   -1.9379 C   0  0  0  0  0  0  0  0  0  0  0  0
    3.3187   -2.2840   -2.9803 H   0  0  0  0  0  0  0  0  0  0  0  0
    1.9273   -2.5057   -1.8555 H   0  0  0  0  0  0  0  0  0  0  0  0
    3.6003   -2.7533   -1.2776 H   0  0  0  0  0  0  0  0  0  0  0  0
    4.5219   -0.1598   -1.5537 C   0  0  0  0  0  0  0  0  0  0  0  0
    4.9570   -0.2290   -2.5735 H   0  0  0  0  0  0  0  0  0  0  0  0
    5.1432   -0.7894   -0.8877 H   0  0  0  0  0  0  0  0  0  0  0  0
    4.5970    0.8940   -1.2208 H   0  0  0  0  0  0  0  0  0  0  0  0
   -0.0034    5.7183    0.0135 C   0  0  0  0  0  0  0  0  0  0  0  0
    0.9364    6.1368   -0.3978 H   0  0  0  0  0  0  0  0  0  0  0  0
   -0.1021    6.0980    1.0538 H   0  0  0  0  0  0  0  0  0  0  0  0
   -0.8506    6.1362   -0.5657 H   0  0  0  0  0  0  0  0  0  0  0  0
  1 13  1  0  0  0  0
  2  4  1  0  0  0  0
  2 39  1  0  0  0  0
  3  6  1  0  0  0  0
  3  1  1  0  0  0  0
  5 12  1  0  0  0  0
  6  5  2  0  0  0  0
  7  6  1  0  0  0  0
  7  9  2  0  0  0  0
  8  7  1  0  0  0  0
  9 65  1  0  0  0  0
  9 10  1  0  0  0  0
 10 12  2  0  0  0  0
 10 11  1  0  0  0  0
 12  4  1  0  0  0  0
 13 18  1  0  0  0  0
 13 14  1  0  0  0  0
 14 17  1  0  0  0  0
 14 15  1  0  0  0  0
 16 14  1  0  0  0  0
 18 19  1  0  0  0  0
 20 18  1  0  0  0  0
 21 18  1  0  0  0  0
 22 13  1  0  0  0  0
 22 23  1  0  0  0  0
 24 22  1  0  0  0  0
 25 22  1  0  0  0  0
 26 31  1  0  0  0  0
 26  1  1  0  0  0  0
 27 29  1  0  0  0  0
 27 26  1  0  0  0  0
 28 27  1  0  0  0  0
 30 27  1  0  0  0  0
 31 34  1  0  0  0  0
 31 33  1  0  0  0  0
 32 31  1  0  0  0  0
 35 26  1  0  0  0  0
 35 38  1  0  0  0  0
 36 35  1  0  0  0  0
 37 35  1  0  0  0  0
 39 48  1  0  0  0  0
 39 40  1  0  0  0  0
 40 43  1  0  0  0  0
 40 41  1  0  0  0  0
 42 40  1  0  0  0  0
 44 39  1  0  0  0  0
 44 45  1  0  0  0  0
 46 44  1  0  0  0  0
 47 44  1  0  0  0  0
 48 50  1  0  0  0  0
 48 49  1  0  0  0  0
 51 48  1  0  0  0  0
 52 61  1  0  0  0  0
 52  2  1  0  0  0  0
 53 55  1  0  0  0  0
 53 52  1  0  0  0  0
 54 53  1  0  0  0  0
 56 53  1  0  0  0  0
 57 59  1  0  0  0  0
 57 52  1  0  0  0  0
 57 60  1  0  0  0  0
 58 57  1  0  0  0  0
 61 64  1  0  0  0  0
 61 63  1  0  0  0  0
 62 61  1  0  0  0  0
 65 67  1  0  0  0  0
 66 65  1  0  0  0  0
 68 65  1  0  0  0  0
M  END
