3,4,8
q = -1.0, confidence = 0.01

 53 53  0  0  0  0  0  0  0  0999 V2000
   -2.7335    4.1063    0.0338 Cl  0  0  0  0  0  0  0  0  0  0  0  0
    2.7335    4.1063   -0.0339 Cl  0  0  0  0  0  0  0  0  0  0  0  0
   -2.1313   -0.5424   -0.0551 P   0  0  0  0  0  0  0  0  0  0  0  0
    2.1313   -0.5424    0.0552 P   0  0  0  0  0  0  0  0  0  0  0  0
   -2.4024    1.1458    0.0148 O   0  0  0  0  0  0  0  0  0  0  0  0
    2.4024    1.1457   -0.0149 O   0  0  0  0  0  0  0  0  0  0  0  0
   -1.2139    1.8355    0.0130 C   0  0  0  0  0  0  0  0  0  0  0  0
    0.0000    1.1091   -0.0000 C   0  0  0  0  0  3  0  0  0  0  0  0
    1.2139    1.8355   -0.0131 C   0  0  0  0  0  0  0  0  0  0  0  0
   -3.1192   -1.1298    1.3957 C   0  0  0  0  0  0  0  0  0  0  0  0
   -3.1071   -2.2369    1.2802 H   0  0  0  0  0  0  0  0  0  0  0  0
   -2.3589   -0.7633    2.6777 C   0  0  0  0  0  0  0  0  0  0  0  0
   -2.2477    0.3359    2.7748 H   0  0  0  0  0  0  0  0  0  0  0  0
   -1.3472   -1.2160    2.6821 H   0  0  0  0  0  0  0  0  0  0  0  0
   -2.9092   -1.1315    3.5674 H   0  0  0  0  0  0  0  0  0  0  0  0
   -4.5566   -0.5991    1.3799 C   0  0  0  0  0  0  0  0  0  0  0  0
   -5.0955   -0.9389    2.2881 H   0  0  0  0  0  0  0  0  0  0  0  0
   -5.1292   -0.9543    0.5003 H   0  0  0  0  0  0  0  0  0  0  0  0
   -4.5626    0.5095    1.3713 H   0  0  0  0  0  0  0  0  0  0  0  0
   -3.0748   -0.9514   -1.5982 C   0  0  0  0  0  0  0  0  0  0  0  0
   -4.0264   -0.3837   -1.4971 H   0  0  0  0  0  0  0  0  0  0  0  0
   -3.3618   -2.4534   -1.7064 C   0  0  0  0  0  0  0  0  0  0  0  0
   -3.8773   -2.6662   -2.6655 H   0  0  0  0  0  0  0  0  0  0  0  0
   -4.0150   -2.8177   -0.8886 H   0  0  0  0  0  0  0  0  0  0  0  0
   -2.4216   -3.0411   -1.6789 H   0  0  0  0  0  0  0  0  0  0  0  0
   -2.2946   -0.4086   -2.8025 C   0  0  0  0  0  0  0  0  0  0  0  0
   -1.3315   -0.9464   -2.9200 H   0  0  0  0  0  0  0  0  0  0  0  0
   -2.0747    0.6719   -2.6959 H   0  0  0  0  0  0  0  0  0  0  0  0
   -2.8832   -0.5493   -3.7321 H   0  0  0  0  0  0  0  0  0  0  0  0
    3.0747   -0.9513    1.5984 C   0  0  0  0  0  0  0  0  0  0  0  0
    4.0263   -0.3837    1.4972 H   0  0  0  0  0  0  0  0  0  0  0  0
    2.2944   -0.4082    2.8026 C   0  0  0  0  0  0  0  0  0  0  0  0
    1.3313   -0.9459    2.9200 H   0  0  0  0  0  0  0  0  0  0  0  0
    2.0747    0.6723    2.6958 H   0  0  0  0  0  0  0  0  0  0  0  0
    2.8830   -0.5488    3.7322 H   0  0  0  0  0  0  0  0  0  0  0  0
    3.3615   -2.4533    1.7068 C   0  0  0  0  0  0  0  0  0  0  0  0
    3.8769   -2.6660    2.6659 H   0  0  0  0  0  0  0  0  0  0  0  0
    4.0146   -2.8178    0.8891 H   0  0  0  0  0  0  0  0  0  0  0  0
    2.4212   -3.0409    1.6793 H   0  0  0  0  0  0  0  0  0  0  0  0
    3.1193   -1.1300   -1.3955 C   0  0  0  0  0  0  0  0  0  0  0  0
    3.1071   -2.2370   -1.2799 H   0  0  0  0  0  0  0  0  0  0  0  0
    2.3591   -0.7635   -2.6776 C   0  0  0  0  0  0  0  0  0  0  0  0
    2.2480    0.3357   -2.7748 H   0  0  0  0  0  0  0  0  0  0  0  0
    1.3474   -1.2162   -2.6820 H   0  0  0  0  0  0  0  0  0  0  0  0
    2.9095   -1.1319   -3.5673 H   0  0  0  0  0  0  0  0  0  0  0  0
    4.5567   -0.5993   -1.3796 C   0  0  0  0  0  0  0  0  0  0  0  0
    5.0957   -0.9393   -2.2878 H   0  0  0  0  0  0  0  0  0  0  0  0
    5.1292   -0.9545   -0.5000 H   0  0  0  0  0  0  0  0  0  0  0  0
    4.5628    0.5092   -1.3712 H   0  0  0  0  0  0  0  0  0  0  0  0
   -1.2167    3.2437    0.0153 C   0  0  0  0  0  0  0  0  0  0  0  0
    0.0000    3.9451   -0.0001 C   0  0  0  0  0  0  0  0  0  0  0  0
    0.0000    5.0424   -0.0001 H   0  0  0  0  0  0  0  0  0  0  0  0
    1.2167    3.2437   -0.0155 C   0  0  0  0  0  0  0  0  0  0  0  0
  2 53  1  0  0  0  0
  3  5  1  0  0  0  0
  3 10  1  0  0  0  0
  4 30  1  0  0  0  0
  6  9  1  0  0  0  0
  6  4  1  0  0  0  0
  7  5  1  0  0  0  0
  7 50  1  0  0  0  0
  8  7  2  0  0  0  0
  9  8  1  0  0  0  0
 10 12  1  0  0  0  0
 11 10  1  0  0  0  0
 12 14  1  0  0  0  0
 12 13  1  0  0  0  0
 12 15  1  0  0  0  0
 16 10  1  0  0  0  0
 16 17  1  0  0  0  0
 18 16  1  0  0  0  0
 19 16  1  0  0  0  0
 20 21  1  0  0  0  0
 20  3  1  0  0  0  0
 22 25  1  0  0  0  0
 22 20  1  0  0  0  0
 22 24  1  0  0  0  0
 23 22  1  0  0  0  0
 26 28  1  0  0  0  0
 26 20  1  0  0  0  0
 27 26  1  0  0  0  0
 29 26  1  0  0  0  0
 30 36  1  0  0  0  0
 30 32  1  0  0  0  0
 31 30  1  0  0  0  0
 32 33  1  0  0  0  0
 32 35  1  0  0  0  0
 34 32  1  0  0  0  0
 36 37  1  0  0  0  0
 38 36  1  0  0  0  0
 39 36  1  0  0  0  0
 40 46  1  0  0  0  0
 40 41  1  0  0  0  0
 40  4  1  0  0  0  0
 42 40  1  0  0  0  0
 43 42  1  0  0  0  0
 44 42  1  0  0  0  0
 45 42  1  0  0  0  0
 46 49  1  0  0  0  0
 46 48  1  0  0  0  0
 47 46  1  0  0  0  0
 50  1  1  0  0  0  0
 51 50  2  0  0  0  0
 52 51  1  0  0  0  0
 53  9  2  0  0  0  0
 53 51  1  0  0  0  0
M  END
