1,5,9
q = -1.0

 39 39  0  0  0  0  0  0  0  0999 V2000
    0.3511    2.2839    0.0394 P   0  0  0  0  0  0  0  0  0  0  0  0
   -0.5309    3.7052    0.8262 C   0  0  0  0  0  0  0  0  0  0  0  0
    0.7781    2.9237   -1.6294 C   0  0  0  0  0  0  0  0  0  0  0  0
    1.9927    2.2961    0.8959 C   0  0  0  0  0  0  0  0  0  0  0  0
    0.0669   -2.2290    0.1305 P   0  0  0  0  0  0  0  0  0  0  0  0
   -1.0679   -3.4282   -0.6835 C   0  0  0  0  0  0  0  0  0  0  0  0
    0.5227   -3.0620    1.7111 C   0  0  0  0  0  0  0  0  0  0  0  0
    1.6195   -2.3773   -0.8620 C   0  0  0  0  0  0  0  0  0  0  0  0
    1.8739   -0.0595    0.0458 C   0  0  0  0  0  3  0  0  0  0  0  0
    2.6890    1.0322    0.4506 C   0  0  0  0  0  0  0  0  0  0  0  0
    4.1026    0.9468    0.4104 C   0  0  0  0  0  0  0  0  0  0  0  0
    4.6891   -0.2427   -0.0544 C   0  0  0  0  0  0  0  0  0  0  0  0
    3.9201   -1.3407   -0.4794 C   0  0  0  0  0  0  0  0  0  0  0  0
    2.5087   -1.2425   -0.4202 C   0  0  0  0  0  0  0  0  0  0  0  0
    4.9702    2.0996    0.8551 C   0  0  0  0  0  0  0  0  0  0  0  0
    4.5984   -2.5862   -0.9979 C   0  0  0  0  0  0  0  0  0  0  0  0
    0.1512    4.5758    0.9057 H   0  0  0  0  0  0  0  0  0  0  0  0
   -0.8704    3.4204    1.8411 H   0  0  0  0  0  0  0  0  0  0  0  0
   -1.4081    3.9955    0.2184 H   0  0  0  0  0  0  0  0  0  0  0  0
   -0.1237    2.9628   -2.2676 H   0  0  0  0  0  0  0  0  0  0  0  0
    1.4782    2.2003   -2.0882 H   0  0  0  0  0  0  0  0  0  0  0  0
    1.2421    3.9278   -1.5560 H   0  0  0  0  0  0  0  0  0  0  0  0
    2.5532    3.2244    0.6594 H   0  0  0  0  0  0  0  0  0  0  0  0
    1.7973    2.3032    1.9915 H   0  0  0  0  0  0  0  0  0  0  0  0
   -1.9726   -3.5908   -0.0671 H   0  0  0  0  0  0  0  0  0  0  0  0
   -1.3541   -2.9953   -1.6614 H   0  0  0  0  0  0  0  0  0  0  0  0
   -0.5554   -4.3992   -0.8372 H   0  0  0  0  0  0  0  0  0  0  0  0
   -0.3239   -3.0548    2.4241 H   0  0  0  0  0  0  0  0  0  0  0  0
    1.3630   -2.4990    2.1612 H   0  0  0  0  0  0  0  0  0  0  0  0
    0.8343   -4.1092    1.5256 H   0  0  0  0  0  0  0  0  0  0  0  0
    2.0716   -3.3850   -0.7595 H   0  0  0  0  0  0  0  0  0  0  0  0
    1.2997   -2.2316   -1.9179 H   0  0  0  0  0  0  0  0  0  0  0  0
    5.7887   -0.3156   -0.0925 H   0  0  0  0  0  0  0  0  0  0  0  0
    4.7440    2.4107    1.8972 H   0  0  0  0  0  0  0  0  0  0  0  0
    4.8221    2.9995    0.2192 H   0  0  0  0  0  0  0  0  0  0  0  0
    6.0446    1.8352    0.8083 H   0  0  0  0  0  0  0  0  0  0  0  0
    5.6999   -2.4716   -1.0018 H   0  0  0  0  0  0  0  0  0  0  0  0
    4.2800   -2.8262   -2.0344 H   0  0  0  0  0  0  0  0  0  0  0  0
    4.3588   -3.4785   -0.3799 H   0  0  0  0  0  0  0  0  0  0  0  0
  1  2  1  0  0  0  0
  1  4  1  0  0  0  0
  2 17  1  0  0  0  0
  2 18  1  0  0  0  0
  3 22  1  0  0  0  0
  3  1  1  0  0  0  0
  4 24  1  0  0  0  0
  5  7  1  0  0  0  0
  6 25  1  0  0  0  0
  6  5  1  0  0  0  0
  7 29  1  0  0  0  0
  7 28  1  0  0  0  0
  8 31  1  0  0  0  0
  8 14  1  0  0  0  0
  8  5  1  0  0  0  0
  9 10  1  0  0  0  0
 10  4  1  0  0  0  0
 11 10  2  0  0  0  0
 11 15  1  0  0  0  0
 12 11  1  0  0  0  0
 13 14  1  0  0  0  0
 13 12  2  0  0  0  0
 14  9  2  0  0  0  0
 15 34  1  0  0  0  0
 16 13  1  0  0  0  0
 16 39  1  0  0  0  0
 19  2  1  0  0  0  0
 20  3  1  0  0  0  0
 21  3  1  0  0  0  0
 23  4  1  0  0  0  0
 26  6  1  0  0  0  0
 27  6  1  0  0  0  0
 30  7  1  0  0  0  0
 32  8  1  0  0  0  0
 33 12  1  0  0  0  0
 35 15  1  0  0  0  0
 36 15  1  0  0  0  0
 37 16  1  0  0  0  0
 38 16  1  0  0  0  0
M  END
