1,2,4,13,15
q = -1.0

 31 31  0  0  0  0  0  0  0  0999 V2000
   -1.4671    0.9192    0.0054 N   0  0  0  0  0  0  0  0  0  0  0  0
    1.4674    0.9190    0.0058 N   0  0  0  0  0  0  0  0  0  0  0  0
   -1.3013    1.0861   -1.4921 C   0  0  0  0  0  0  0  0  0  0  0  0
    0.0003    0.3670   -1.7604 C   0  0  0  0  0  3  0  0  0  0  0  0
    1.3020    1.0860   -1.4918 C   0  0  0  0  0  0  0  0  0  0  0  0
   -1.2903    2.1465    0.8052 C   0  0  0  0  0  0  0  0  0  0  0  0
    0.0003    2.9110    0.5252 C   0  0  0  0  0  0  0  0  0  0  0  0
    1.2906    2.1462    0.8056 C   0  0  0  0  0  0  0  0  0  0  0  0
   -2.7102    0.2046    0.3589 C   0  0  0  0  0  0  0  0  0  0  0  0
   -2.6211   -1.2775   -0.0725 C   0  0  0  0  0  0  0  0  0  0  0  0
    2.7103    0.2041    0.3595 C   0  0  0  0  0  0  0  0  0  0  0  0
    2.6210   -1.2779   -0.0722 C   0  0  0  0  0  0  0  0  0  0  0  0
   -1.3805   -1.7003   -0.1915 O   0  5  0  0  0  0  0  0  0  0  0  0
   -3.6291   -1.9529   -0.2107 O   0  0  0  0  0  0  0  0  0  0  0  0
    1.3802   -1.7006   -0.1906 O   0  5  0  0  0  0  0  0  0  0  0  0
    3.6289   -1.9533   -0.2111 O   0  0  0  0  0  0  0  0  0  0  0  0
   -1.3561    2.1634   -1.7751 H   0  0  0  0  0  0  0  0  0  0  0  0
   -2.1460    0.5735   -1.9901 H   0  0  0  0  0  0  0  0  0  0  0  0
    0.0004   -0.3513   -2.5973 H   0  0  0  0  0  0  0  0  0  0  0  0
    2.1467    0.5733   -1.9896 H   0  0  0  0  0  0  0  0  0  0  0  0
    1.3570    2.1633   -1.7747 H   0  0  0  0  0  0  0  0  0  0  0  0
   -2.1614    2.8212    0.6315 H   0  0  0  0  0  0  0  0  0  0  0  0
   -1.3200    1.8381    1.8712 H   0  0  0  0  0  0  0  0  0  0  0  0
    0.0003    3.8112    1.1731 H   0  0  0  0  0  0  0  0  0  0  0  0
    0.0004    3.3031   -0.5125 H   0  0  0  0  0  0  0  0  0  0  0  0
    1.3200    1.8379    1.8715 H   0  0  0  0  0  0  0  0  0  0  0  0
    2.1619    2.8208    0.6320 H   0  0  0  0  0  0  0  0  0  0  0  0
   -2.8233    0.2246    1.4634 H   0  0  0  0  0  0  0  0  0  0  0  0
   -3.6080    0.6923   -0.0789 H   0  0  0  0  0  0  0  0  0  0  0  0
    3.6082    0.6918   -0.0780 H   0  0  0  0  0  0  0  0  0  0  0  0
    2.8230    0.2238    1.4640 H   0  0  0  0  0  0  0  0  0  0  0  0
  1  9  1  0  0  0  0
  1  6  1  0  0  0  0
  2 11  1  0  0  0  0
  2  8  1  0  0  0  0
  3  1  1  0  0  0  0
  4  3  1  0  0  0  0
  4  5  1  0  0  0  0
  5  2  1  0  0  0  0
  6 23  1  0  0  0  0
  7  6  1  0  0  0  0
  7  8  1  0  0  0  0
  7 24  1  0  0  0  0
  8 26  1  0  0  0  0
  9 28  1  0  0  0  0
 10  9  1  0  0  0  0
 11 31  1  0  0  0  0
 12 11  1  0  0  0  0
 13 10  1  0  0  0  0
 14 10  2  0  0  0  0
 15 12  1  0  0  0  0
 16 12  2  0  0  0  0
 17  3  1  0  0  0  0
 18  3  1  0  0  0  0
 19  4  1  0  0  0  0
 20  5  1  0  0  0  0
 21  5  1  0  0  0  0
 22  6  1  0  0  0  0
 25  7  1  0  0  0  0
 27  8  1  0  0  0  0
 29  9  1  0  0  0  0
 30 11  1  0  0  0  0
M  CHG  2  13  -1  15  -1
M  END
