1,2,4,5,25
q = -1.0

 49 50  0  0  1  0  0  0  0  0999 V2000
    1.4003   -1.5729   -0.1385 O   0  5  0  0  0  0  0  0  0  0  0  0
   -1.1229   -1.5998   -0.0636 O   0  5  0  0  0  0  0  0  0  0  0  0
   -0.2462    2.0369    2.9718 O   0  0  0  0  0  0  0  0  0  0  0  0
    1.3543    0.8996   -1.2838 N   0  0  0  0  0  2  0  0  0  0  0  0
   -1.1901    0.8942   -1.1862 N   0  0  0  0  0  2  0  0  0  0  0  0
    2.6847   -1.3980   -0.0428 C   0  0  0  0  0  0  0  0  0  0  0  0
    3.4836   -2.4444    0.5183 C   0  0  0  0  0  0  0  0  0  0  0  0
    4.8611   -2.3143    0.6429 C   0  0  0  0  0  0  0  0  0  0  0  0
    5.5307   -1.1415    0.2085 C   0  0  0  0  0  0  0  0  0  0  0  0
    4.7887   -0.1130   -0.3571 C   0  0  0  0  0  0  0  0  0  0  0  0
    3.3747   -0.2073   -0.4954 C   0  0  0  0  0  0  0  0  0  0  0  0
    2.6609    0.8400   -1.1562 C   0  0  0  0  0  3  0  0  0  0  0  0
    0.7553    1.9440   -2.1170 C   0  0  0  0  0  0  0  0  0  0  0  0
   -0.6688    2.2030   -1.6203 C   0  0  2  0  0  0  0  0  0  0  0  0
   -2.4916    0.6983   -1.2095 C   0  0  0  0  0  3  0  0  0  0  0  0
   -3.1653   -0.4483   -0.6918 C   0  0  0  0  0  0  0  0  0  0  0  0
   -4.5879   -0.5070   -0.7438 C   0  0  0  0  0  0  0  0  0  0  0  0
   -5.2856   -1.6020   -0.2535 C   0  0  0  0  0  0  0  0  0  0  0  0
   -4.5599   -2.6864    0.3046 C   0  0  0  0  0  0  0  0  0  0  0  0
   -3.1726   -2.6672    0.3672 C   0  0  0  0  0  0  0  0  0  0  0  0
   -2.4201   -1.5535   -0.1258 C   0  0  0  0  0  0  0  0  0  0  0  0
   -0.7743    3.2490   -0.4952 C   0  0  0  0  0  0  0  0  0  0  0  0
   -0.0174    2.9664    0.8040 C   0  0  0  0  0  0  0  0  0  0  0  0
   -0.4792    1.7284    1.5865 C   0  0  1  0  0  0  0  0  0  0  0  0
    0.2674    0.4516    1.2413 C   0  0  0  0  0  3  0  0  0  0  0  0
   -0.9763    1.2485    3.8840 C   0  0  0  0  0  0  0  0  0  0  0  0
    2.9550   -3.3483    0.8535 H   0  0  0  0  0  0  0  0  0  0  0  0
    5.4420   -3.1371    1.0889 H   0  0  0  0  0  0  0  0  0  0  0  0
    6.6214   -1.0523    0.3135 H   0  0  0  0  0  0  0  0  0  0  0  0
    5.2895    0.8013   -0.7152 H   0  0  0  0  0  0  0  0  0  0  0  0
    3.2614    1.6502   -1.6177 H   0  0  0  0  0  0  0  0  0  0  0  0
    0.7155    1.5779   -3.1667 H   0  0  0  0  0  0  0  0  0  0  0  0
    1.3679    2.8714   -2.1107 H   0  0  0  0  0  0  0  0  0  0  0  0
   -1.2814    2.5720   -2.4727 H   0  0  0  0  0  0  0  0  0  0  0  0
   -3.1222    1.4946   -1.6552 H   0  0  0  0  0  0  0  0  0  0  0  0
   -5.1303    0.3465   -1.1826 H   0  0  0  0  0  0  0  0  0  0  0  0
   -6.3838   -1.6308   -0.2958 H   0  0  0  0  0  0  0  0  0  0  0  0
   -5.1051   -3.5599    0.6959 H   0  0  0  0  0  0  0  0  0  0  0  0
   -2.6009   -3.5037    0.7942 H   0  0  0  0  0  0  0  0  0  0  0  0
   -0.4332    4.2200   -0.9146 H   0  0  0  0  0  0  0  0  0  0  0  0
   -1.8547    3.3794   -0.2651 H   0  0  0  0  0  0  0  0  0  0  0  0
   -0.1679    3.8312    1.4818 H   0  0  0  0  0  0  0  0  0  0  0  0
    1.0770    2.9012    0.6238 H   0  0  0  0  0  0  0  0  0  0  0  0
   -1.5790    1.5855    1.4398 H   0  0  0  0  0  0  0  0  0  0  0  0
    1.3546    0.5996    1.4113 H   0  0  0  0  0  0  0  0  0  0  0  0
   -0.0893   -0.4130    1.8323 H   0  0  0  0  0  0  0  0  0  0  0  0
   -0.7950    1.6642    4.8948 H   0  0  0  0  0  0  0  0  0  0  0  0
   -0.6668    0.1778    3.8889 H   0  0  0  0  0  0  0  0  0  0  0  0
   -2.0744    1.2827    3.6767 H   0  0  0  0  0  0  0  0  0  0  0  0
  1  6  1  0  0  0  0
  3 26  1  0  0  0  0
  4 12  1  0  0  0  0
  6  7  1  0  0  0  0
  7  8  2  0  0  0  0
  7 27  1  0  0  0  0
  8 28  1  0  0  0  0
  9 29  1  0  0  0  0
  9  8  1  0  0  0  0
 10  9  2  0  0  0  0
 11 10  1  0  0  0  0
 11  6  2  0  0  0  0
 12 11  1  0  0  0  0
 13 33  1  0  0  0  0
 13 14  1  0  0  0  0
 13  4  1  0  0  0  0
 14 34  1  6  0  0  0
 14  5  1  0  0  0  0
 14 22  1  0  0  0  0
 15  5  1  0  0  0  0
 15 16  1  0  0  0  0
 16 21  1  0  0  0  0
 17 16  2  0  0  0  0
 17 18  1  0  0  0  0
 18 19  2  0  0  0  0
 19 20  1  0  0  0  0
 19 38  1  0  0  0  0
 20 39  1  0  0  0  0
 21  2  1  0  0  0  0
 21 20  2  0  0  0  0
 22 41  1  0  0  0  0
 22 23  1  0  0  0  0
 23 42  1  0  0  0  0
 23 24  1  0  0  0  0
 24 44  1  6  0  0  0
 24  3  1  0  0  0  0
 25 45  1  0  0  0  0
 25 24  1  0  0  0  0
 25 46  1  0  0  0  0
 26 48  1  0  0  0  0
 26 47  1  0  0  0  0
 30 10  1  0  0  0  0
 31 12  1  0  0  0  0
 32 13  1  0  0  0  0
 35 15  1  0  0  0  0
 36 17  1  0  0  0  0
 37 18  1  0  0  0  0
 40 22  1  0  0  0  0
 43 23  1  0  0  0  0
 49 26  1  0  0  0  0
M  CHG  2   1  -1   2  -1
M  END
