1,2,3,24
q = -3.0, confidence = 0.494

 33 35  0  0  0  0  0  0  0  0999 V2000
    0.0969   -1.3054   -1.6466 O   0  5  0  0  0  0  0  0  0  0  0  0
   -0.1038    1.3950   -1.5633 O   0  5  0  0  0  0  0  0  0  0  0  0
    1.6765    0.1241    0.0544 N   0  0  0  0  0  0  0  0  0  0  0  0
    1.3702   -1.6682   -1.5647 C   0  0  0  0  0  0  0  0  0  0  0  0
    2.2460   -1.0381   -0.6312 C   0  0  0  0  0  0  0  0  0  0  0  0
    3.5663   -1.4732   -0.4629 C   0  0  0  0  0  0  0  0  0  0  0  0
    4.2193   -0.9693    0.2635 H   0  0  0  0  0  0  0  0  0  0  0  0
    4.0566   -2.5475   -1.2235 C   0  0  0  0  0  0  0  0  0  0  0  0
    5.0905   -2.8948   -1.0842 H   0  0  0  0  0  0  0  0  0  0  0  0
    3.2180   -3.1570   -2.1744 C   0  0  0  0  0  0  0  0  0  0  0  0
    3.6010   -3.9876   -2.7876 H   0  0  0  0  0  0  0  0  0  0  0  0
    1.8971   -2.7271   -2.3507 C   0  0  0  0  0  0  0  0  0  0  0  0
    1.2342   -3.2020   -3.0893 H   0  0  0  0  0  0  0  0  0  0  0  0
    2.0812    1.3701   -0.5991 C   0  0  0  0  0  0  0  0  0  0  0  0
    1.1097    1.9232   -1.4819 C   0  0  0  0  0  0  0  0  0  0  0  0
    1.4690    3.0831   -2.2171 C   0  0  0  0  0  0  0  0  0  0  0  0
    0.7296    3.5059   -2.9137 H   0  0  0  0  0  0  0  0  0  0  0  0
    2.7265    3.6739   -2.0436 C   0  0  0  0  0  0  0  0  0  0  0  0
    2.9808    4.5793   -2.6168 H   0  0  0  0  0  0  0  0  0  0  0  0
    3.6638    3.1302   -1.1461 C   0  0  0  0  0  0  0  0  0  0  0  0
    4.6477    3.6020   -1.0103 H   0  0  0  0  0  0  0  0  0  0  0  0
    3.3377    1.9647   -0.4337 C   0  0  0  0  0  0  0  0  0  0  0  0
    4.0696    1.5159    0.2524 H   0  0  0  0  0  0  0  0  0  0  0  0
    0.2427    0.0118    1.8965 C   0  0  0  0  0  3  0  0  0  0  0  0
    1.6014    0.1088    1.5260 C   0  0  0  0  0  0  0  0  0  0  0  0
    2.6545    0.1729    2.4363 C   0  0  0  0  0  0  0  0  0  0  0  0
    3.7008    0.2489    2.1077 H   0  0  0  0  0  0  0  0  0  0  0  0
    2.3393    0.1367    3.8139 C   0  0  0  0  0  0  0  0  0  0  0  0
    3.1451    0.1865    4.5611 H   0  0  0  0  0  0  0  0  0  0  0  0
    1.0001    0.0360    4.2218 C   0  0  0  0  0  0  0  0  0  0  0  0
    0.7623    0.0034    5.2971 H   0  0  0  0  0  0  0  0  0  0  0  0
   -0.0457   -0.0285    3.2763 C   0  0  0  0  0  0  0  0  0  0  0  0
   -1.0854   -0.1236    3.6310 H   0  0  0  0  0  0  0  0  0  0  0  0
  1  4  1  0  0  0  0
  2 15  1  0  0  0  0
  3 25  1  0  0  0  0
  4  5  1  0  0  0  0
  5  6  2  0  0  0  0
  5  3  1  0  0  0  0
  6  7  1  0  0  0  0
  8  9  1  0  0  0  0
  8  6  1  0  0  0  0
 10  8  2  0  0  0  0
 11 10  1  0  0  0  0
 12 10  1  0  0  0  0
 12  4  2  0  0  0  0
 13 12  1  0  0  0  0
 14 22  1  0  0  0  0
 14  3  1  0  0  0  0
 15 14  2  0  0  0  0
 16 18  2  0  0  0  0
 16 15  1  0  0  0  0
 17 16  1  0  0  0  0
 18 20  1  0  0  0  0
 19 18  1  0  0  0  0
 20 21  1  0  0  0  0
 20 22  2  0  0  0  0
 22 23  1  0  0  0  0
 24 32  1  0  0  0  0
 25 24  2  0  0  0  0
 25 26  1  0  0  0  0
 26 28  2  0  0  0  0
 27 26  1  0  0  0  0
 28 30  1  0  0  0  0
 28 29  1  0  0  0  0
 30 31  1  0  0  0  0
 32 33  1  0  0  0  0
 32 30  2  0  0  0  0
M  CHG  2   1  -1   2  -1
M  END
