2,3,4,19
q = -1.0

 32 32  0  0  1  0  0  0  0  0999 V2000
   -3.7738   -1.4406    0.2669 Si  0  0  0  0  0  0  0  0  0  0  0  0
   -0.6979    1.7905   -0.1327 N   0  0  0  0  0  2  0  0  0  0  0  0
    1.2352    1.5539    1.4087 O   0  0  0  0  0  1  0  0  0  0  0  0
   -0.3467   -0.2343   -1.6116 O   0  0  0  0  0  1  0  0  0  0  0  0
    0.6413    2.8195    1.5064 C   0  0  0  0  0  0  0  0  0  0  0  0
    1.3727    3.6071    1.1993 H   0  0  0  0  0  0  0  0  0  0  0  0
    0.3547    3.0457    2.5608 H   0  0  0  0  0  0  0  0  0  0  0  0
   -0.5870    2.8907    0.6192 C   0  0  2  0  0  3  0  0  0  0  0  0
   -1.5708    3.8898    0.5394 C   0  0  0  0  0  0  0  0  0  0  0  0
   -1.4943    4.8024    1.1478 H   0  0  0  0  0  0  0  0  0  0  0  0
   -2.6552    3.6826   -0.3300 C   0  0  0  0  0  0  0  0  0  0  0  0
   -3.4342    4.4547   -0.4238 H   0  0  0  0  0  0  0  0  0  0  0  0
   -2.7731    2.4800   -1.0549 C   0  0  0  0  0  0  0  0  0  0  0  0
   -3.6448    2.2843   -1.6948 H   0  0  0  0  0  0  0  0  0  0  0  0
   -1.7676    1.5192   -0.9111 C   0  0  0  0  0  0  0  0  0  0  0  0
   -1.6885    0.0553   -1.3333 C   0  0  2  0  0  0  0  0  0  0  0  0
   -2.3514   -0.1763   -2.1969 H   0  0  0  0  0  0  0  0  0  0  0  0
   -2.0800   -0.6835   -0.0101 C   0  0  0  0  0  0  0  0  0  0  0  0
   -1.0332   -0.6575    0.8475 C   0  0  0  0  0  3  0  0  0  0  0  0
   -1.1280   -1.1029    1.8569 H   0  0  0  0  0  0  0  0  0  0  0  0
   -3.9011   -2.0655    2.0489 C   0  0  0  0  0  0  0  0  0  0  0  0
   -3.7701   -1.2348    2.7719 H   0  0  0  0  0  0  0  0  0  0  0  0
   -3.1189   -2.8237    2.2586 H   0  0  0  0  0  0  0  0  0  0  0  0
   -4.8888   -2.5344    2.2378 H   0  0  0  0  0  0  0  0  0  0  0  0
   -5.1418   -0.1630   -0.0652 C   0  0  0  0  0  0  0  0  0  0  0  0
   -5.0221    0.7301    0.5815 H   0  0  0  0  0  0  0  0  0  0  0  0
   -6.1447   -0.5977    0.1280 H   0  0  0  0  0  0  0  0  0  0  0  0
   -5.1250    0.1772   -1.1215 H   0  0  0  0  0  0  0  0  0  0  0  0
   -4.0013   -2.8903   -0.9379 C   0  0  0  0  0  0  0  0  0  0  0  0
   -4.9952   -3.3694   -0.8177 H   0  0  0  0  0  0  0  0  0  0  0  0
   -3.2227   -3.6624   -0.7695 H   0  0  0  0  0  0  0  0  0  0  0  0
   -3.9138   -2.5507   -1.9908 H   0  0  0  0  0  0  0  0  0  0  0  0
  1 21  1  0  0  0  0
  2  8  1  0  0  0  0
  3  5  1  0  0  0  0
  4 16  1  0  0  0  0
  5  7  1  0  0  0  0
  6  5  1  0  0  0  0
  8  5  1  1  0  0  0
  9  8  1  0  0  0  0
  9 10  1  0  0  0  0
 11  9  2  0  0  0  0
 12 11  1  0  0  0  0
 13 15  2  0  0  0  0
 13 11  1  0  0  0  0
 14 13  1  0  0  0  0
 15  2  1  0  0  0  0
 16 17  1  6  0  0  0
 16 15  1  0  0  0  0
 16 18  1  0  0  0  0
 18  1  1  0  0  0  0
 18 19  2  0  0  0  0
 19 20  1  0  0  0  0
 21 24  1  0  0  0  0
 21 23  1  0  0  0  0
 21 22  1  0  0  0  0
 25 27  1  0  0  0  0
 25  1  1  0  0  0  0
 25 26  1  0  0  0  0
 28 25  1  0  0  0  0
 29 30  1  0  0  0  0
 29 31  1  0  0  0  0
 29  1  1  0  0  0  0
 32 29  1  0  0  0  0
M  END
