3,6,52,53
q = -1.0, confidence = 0.428

 53 57  0  0  1  0  0  0  0  0999 V2000
    5.8719   -2.0294   -0.2315 C   0  0  0  0  0  0  0  0  0  0  0  0
    6.9113   -1.9807    0.1295 H   0  0  0  0  0  0  0  0  0  0  0  0
   -1.1138   -0.0251    0.0734 N   0  0  0  0  0  2  0  0  0  0  0  0
   -5.9474   -0.7868   -1.5123 C   0  0  0  0  0  0  0  0  0  0  0  0
   -5.4319   -1.7533   -1.6176 H   0  0  0  0  0  0  0  0  0  0  0  0
    0.7043   -1.5793   -1.0851 C   0  0  0  0  0  3  0  0  0  0  0  0
    1.7887   -2.2726   -1.6742 C   0  0  0  0  0  0  0  0  0  0  0  0
   -1.8753    0.9114    0.7161 C   0  0  2  0  0  3  0  0  0  0  0  0
    3.4625   -1.7210    0.2117 C   0  0  0  0  0  0  0  0  0  0  0  0
   -8.0140    0.5159   -1.6816 C   0  0  0  0  0  0  0  0  0  0  0  0
    0.1962   -3.1547   -3.3420 C   0  0  0  0  0  0  0  0  0  0  0  0
    0.0102   -3.7999   -4.2138 H   0  0  0  0  0  0  0  0  0  0  0  0
   -2.9395   -0.6413   -1.3690 C   0  0  0  0  0  0  0  0  0  0  0  0
   -3.3079   -1.2209   -2.2248 H   0  0  0  0  0  0  0  0  0  0  0  0
   -1.9266    3.0837    1.8918 C   0  0  0  0  0  0  0  0  0  0  0  0
   -2.7384    3.3567    1.2011 H   0  0  0  0  0  0  0  0  0  0  0  0
   -3.2460    1.0009    0.3674 C   0  0  0  0  0  0  0  0  0  0  0  0
   -3.8935    1.6571    0.9610 H   0  0  0  0  0  0  0  0  0  0  0  0
   -0.1586    1.5023    2.5808 C   0  0  0  0  0  0  0  0  0  0  0  0
   -5.2380    0.3306   -1.0155 C   0  0  0  0  0  0  0  0  0  0  0  0
   -1.6005   -0.7644   -0.9856 C   0  0  0  0  0  0  0  0  0  0  0  0
   -1.2945    1.8175    1.7267 C   0  0  0  0  0  0  0  0  0  0  0  0
   -7.3054   -0.6946   -1.8339 C   0  0  0  0  0  0  0  0  0  0  0  0
   -7.8343   -1.5869   -2.2049 H   0  0  0  0  0  0  0  0  0  0  0  0
   -3.8005    0.2314   -0.6693 C   0  0  0  0  0  0  0  0  0  0  0  0
    4.8261   -1.6954    0.6269 C   0  0  0  0  0  0  0  0  0  0  0  0
    5.0129   -1.3813    1.6643 H   0  0  0  0  0  0  0  0  0  0  0  0
    1.4897   -3.0858   -2.7990 C   0  0  0  0  0  0  0  0  0  0  0  0
    2.2830   -3.6980   -3.2532 H   0  0  0  0  0  0  0  0  0  0  0  0
    5.5954   -2.4027   -1.5608 C   0  0  0  0  0  0  0  0  0  0  0  0
    6.4094   -2.6402   -2.2615 H   0  0  0  0  0  0  0  0  0  0  0  0
   -5.9480    1.5413   -0.8582 C   0  0  0  0  0  0  0  0  0  0  0  0
   -5.4211    2.4373   -0.4974 H   0  0  0  0  0  0  0  0  0  0  0  0
   -0.6012   -1.6195   -1.6499 C   0  0  0  0  0  0  0  0  0  0  0  0
    4.2656   -2.4565   -1.9831 C   0  0  0  0  0  0  0  0  0  0  0  0
    4.0576   -2.7271   -3.0292 H   0  0  0  0  0  0  0  0  0  0  0  0
    0.1895    2.4650    3.5861 C   0  0  0  0  0  0  0  0  0  0  0  0
    1.0338    2.1921    4.2360 H   0  0  0  0  0  0  0  0  0  0  0  0
   -9.4692    0.6152   -2.0603 C   0  0  0  0  0  0  0  0  0  0  0  0
   -9.9504    1.5045   -1.6091 H   0  0  0  0  0  0  0  0  0  0  0  0
  -10.0349   -0.2837   -1.7425 H   0  0  0  0  0  0  0  0  0  0  0  0
   -9.5886    0.6972   -3.1622 H   0  0  0  0  0  0  0  0  0  0  0  0
   -0.8560   -2.4145   -2.7869 C   0  0  0  0  0  0  0  0  0  0  0  0
   -1.8602   -2.4655   -3.2345 H   0  0  0  0  0  0  0  0  0  0  0  0
   -1.5321    4.0113    2.8512 C   0  0  0  0  0  0  0  0  0  0  0  0
   -2.0352    4.9865    2.9200 H   0  0  0  0  0  0  0  0  0  0  0  0
   -7.3061    1.6294   -1.1859 C   0  0  0  0  0  0  0  0  0  0  0  0
   -7.8309    2.5897   -1.0605 H   0  0  0  0  0  0  0  0  0  0  0  0
   -0.4679    3.6806    3.7200 C   0  0  0  0  0  0  0  0  0  0  0  0
   -0.1430    4.3946    4.4935 H   0  0  0  0  0  0  0  0  0  0  0  0
    3.1683   -2.1473   -1.1385 C   0  0  0  0  0  0  0  0  0  0  0  0
    2.5754   -1.3736    1.1403 O   0  5  0  0  0  0  0  0  0  0  0  0
    0.5565    0.4114    2.5289 O   0  5  0  0  0  0  0  0  0  0  0  0
  1  2  1  0  0  0  0
  1 26  1  0  0  0  0
  3  8  1  0  0  0  0
  4 20  1  0  0  0  0
  5  4  1  0  0  0  0
  7 51  1  0  0  0  0
  7  6  2  0  0  0  0
  8 22  1  6  0  0  0
  9 26  2  0  0  0  0
  9 52  1  0  0  0  0
 10 47  2  0  0  0  0
 11 28  2  0  0  0  0
 11 43  1  0  0  0  0
 12 11  1  0  0  0  0
 13 21  2  0  0  0  0
 13 25  1  0  0  0  0
 14 13  1  0  0  0  0
 15 45  1  0  0  0  0
 16 15  1  0  0  0  0
 17  8  1  0  0  0  0
 17 18  1  0  0  0  0
 19 37  2  0  0  0  0
 20 32  2  0  0  0  0
 20 25  1  0  0  0  0
 21  3  1  0  0  0  0
 22 15  2  0  0  0  0
 22 19  1  0  0  0  0
 23 10  1  0  0  0  0
 23  4  2  0  0  0  0
 24 23  1  0  0  0  0
 25 17  2  0  0  0  0
 26 27  1  0  0  0  0
 28  7  1  0  0  0  0
 29 28  1  0  0  0  0
 30  1  2  0  0  0  0
 31 30  1  0  0  0  0
 32 33  1  0  0  0  0
 34  6  1  0  0  0  0
 34 21  1  0  0  0  0
 35 30  1  0  0  0  0
 35 51  2  0  0  0  0
 36 35  1  0  0  0  0
 37 49  1  0  0  0  0
 37 38  1  0  0  0  0
 39 41  1  0  0  0  0
 39 10  1  0  0  0  0
 39 40  1  0  0  0  0
 42 39  1  0  0  0  0
 43 34  2  0  0  0  0
 44 43  1  0  0  0  0
 45 46  1  0  0  0  0
 45 49  2  0  0  0  0
 47 48  1  0  0  0  0
 47 32  1  0  0  0  0
 49 50  1  0  0  0  0
 51  9  1  0  0  0  0
 53 19  1  0  0  0  0
M  CHG  2  52  -1  53  -1
M  END
