2,3,10,20,21,24
 OpenBabel05122313063D

 36 35  0  0  1  0  0  0  0  0999 V2000
   -2.5904   -1.9769   -1.1824 S   0  0  0  0  0  0  0  0  0  0  0  0
   -1.1131   -0.1879    1.5663 O   0  5  0  0  0  0  0  0  0  0  0  0
   -1.1996    1.1798   -0.7219 N   0  0  0  0  0  0  0  0  0  0  0  0
   -2.9596    0.7471    2.4138 O   0  0  0  0  0  0  0  0  0  0  0  0
   -0.3842    2.4183   -0.6558 C   0  0  0  0  0  0  0  0  0  0  0  0
   -2.4342    1.2402    0.1128 C   0  0  2  0  0  0  0  0  0  0  0  0
   -2.1786    0.5806    1.4922 C   0  0  0  0  0  0  0  0  0  0  0  0
   -3.6851    0.6219   -0.5493 C   0  0  0  0  0  0  0  0  0  0  0  0
   -3.9027   -0.8729   -0.3648 C   0  0  0  0  0  0  0  0  0  0  0  0
   -1.0992   -1.5048   -0.8024 C   0  0  0  0  0  1  0  0  0  0  0  0
   -4.5633    1.1100   -0.0773 H   0  0  0  0  0  0  0  0  0  0  0  0
   -3.7226    0.9031   -1.6237 H   0  0  0  0  0  0  0  0  0  0  0  0
   -3.9195   -1.1769    0.7011 H   0  0  0  0  0  0  0  0  0  0  0  0
   -4.8359   -1.2174   -0.8532 H   0  0  0  0  0  0  0  0  0  0  0  0
   -2.6674    2.3083    0.3027 H   0  0  0  0  0  0  0  0  0  0  0  0
    0.3044    2.4257   -1.5228 H   0  0  0  0  0  0  0  0  0  0  0  0
   -1.0309    3.3179   -0.7350 H   0  0  0  0  0  0  0  0  0  0  0  0
   -1.4173    0.9714   -1.7066 H   0  0  0  0  0  0  0  0  0  0  0  0
    2.5901   -1.9770    1.1824 S   0  0  0  0  0  0  0  0  0  0  0  0
    1.1132   -0.1877   -1.5666 O   0  5  0  0  0  0  0  0  0  0  0  0
    1.1994    1.1798    0.7216 N   0  0  0  0  0  0  0  0  0  0  0  0
    0.3841    2.4183    0.6553 C   0  0  0  0  0  0  0  0  0  0  0  0
    3.9028   -0.8728    0.3656 C   0  0  0  0  0  0  0  0  0  0  0  0
    1.0991   -1.5049    0.8019 C   0  0  0  0  0  1  0  0  0  0  0  0
    2.1791    0.5801   -1.4920 C   0  0  0  0  0  0  0  0  0  0  0  0
    2.4342    1.2401   -0.1127 C   0  0  2  0  0  0  0  0  0  0  0  0
    1.4168    0.9714    1.7064 H   0  0  0  0  0  0  0  0  0  0  0  0
   -0.3045    2.4260    1.5223 H   0  0  0  0  0  0  0  0  0  0  0  0
    1.0309    3.3180    0.7344 H   0  0  0  0  0  0  0  0  0  0  0  0
    3.6849    0.6220    0.5500 C   0  0  0  0  0  0  0  0  0  0  0  0
    3.9202   -1.1766   -0.7004 H   0  0  0  0  0  0  0  0  0  0  0  0
    4.8358   -1.2172    0.8545 H   0  0  0  0  0  0  0  0  0  0  0  0
    2.9601    0.7470   -2.4136 O   0  0  0  0  0  0  0  0  0  0  0  0
    2.6674    2.3082   -0.3027 H   0  0  0  0  0  0  0  0  0  0  0  0
    4.5633    1.1102    0.0785 H   0  0  0  0  0  0  0  0  0  0  0  0
    3.7218    0.9032    1.6244 H   0  0  0  0  0  0  0  0  0  0  0  0
  1 10  1  0  0  0  0
  1  9  1  0  0  0  0
  3  5  1  0  0  0  0
  3  6  1  0  0  0  0
  5 22  1  0  0  0  0
  6 15  1  1  0  0  0
  6  7  1  0  0  0  0
  7  2  1  0  0  0  0
  7  4  2  0  0  0  0
  8  9  1  0  0  0  0
  8 11  1  0  0  0  0
  8  6  1  0  0  0  0
  9 13  1  0  0  0  0
 12  8  1  0  0  0  0
 14  9  1  0  0  0  0
 16  5  1  0  0  0  0
 17  5  1  0  0  0  0
 18  3  1  0  0  0  0
 20 25  1  0  0  0  0
 21 27  1  0  0  0  0
 22 21  1  0  0  0  0
 22 29  1  0  0  0  0
 22 28  1  0  0  0  0
 23 30  1  0  0  0  0
 23 32  1  0  0  0  0
 23 19  1  0  0  0  0
 24 19  1  0  0  0  0
 25 26  1  0  0  0  0
 26 34  1  6  0  0  0
 26 30  1  0  0  0  0
 26 21  1  0  0  0  0
 30 36  1  0  0  0  0
 31 23  1  0  0  0  0
 33 25  2  0  0  0  0
 35 30  1  0  0  0  0
M  CHG  2   2  -1  20  -1
M  END
