3,4,5
q = -1.0, confidence = 0.144

 63 68  0  0  0  0  0  0  0  0999 V2000
   -1.9385    0.4728   -0.2862 P   0  0  2  0  0  4  0  0  0  0  0  0
    1.6462    0.8319    0.0871 P   0  0  0  0  0  4  0  0  0  0  0  0
   -1.8266   -0.6485   -1.3577 O   0  0  0  0  0  1  0  0  0  0  0  0
    0.8019   -0.0209   -0.8842 O   0  0  0  0  0  1  0  0  0  0  0  0
   -0.6708   -1.4236    1.1779 C   0  0  0  0  0  3  0  0  0  0  0  0
   -0.3892   -2.0583    2.4160 C   0  0  0  0  0  0  0  0  0  0  0  0
    0.0878   -3.0517    2.4068 H   0  0  0  0  0  0  0  0  0  0  0  0
   -0.6872   -1.4638    3.6495 C   0  0  0  0  0  0  0  0  0  0  0  0
   -0.4539   -1.9986    4.5840 H   0  0  0  0  0  0  0  0  0  0  0  0
   -1.2735   -0.1841    3.7104 C   0  0  0  0  0  0  0  0  0  0  0  0
   -1.5010    0.2809    4.6818 H   0  0  0  0  0  0  0  0  0  0  0  0
   -1.5809    0.4838    2.5203 C   0  0  0  0  0  0  0  0  0  0  0  0
   -2.0727    1.4694    2.5530 H   0  0  0  0  0  0  0  0  0  0  0  0
   -1.2820   -0.1372    1.2883 C   0  0  0  0  0  0  0  0  0  0  0  0
   -3.7217    0.7660    0.0198 C   0  0  0  0  0  0  0  0  0  0  0  0
   -4.5983   -0.2847   -0.3138 C   0  0  0  0  0  0  0  0  0  0  0  0
   -4.1899   -1.1822   -0.8025 H   0  0  0  0  0  0  0  0  0  0  0  0
   -5.9668   -0.1689   -0.0266 C   0  0  0  0  0  0  0  0  0  0  0  0
   -6.6510   -0.9884   -0.2939 H   0  0  0  0  0  0  0  0  0  0  0  0
   -6.4613    0.9861    0.5997 C   0  0  0  0  0  0  0  0  0  0  0  0
   -7.5349    1.0731    0.8261 H   0  0  0  0  0  0  0  0  0  0  0  0
   -5.5870    2.0337    0.9352 C   0  0  0  0  0  0  0  0  0  0  0  0
   -5.9744    2.9417    1.4219 H   0  0  0  0  0  0  0  0  0  0  0  0
   -4.2197    1.9281    0.6435 C   0  0  0  0  0  0  0  0  0  0  0  0
   -3.5425    2.7608    0.8894 H   0  0  0  0  0  0  0  0  0  0  0  0
   -1.3590    2.1408   -0.8278 C   0  0  0  0  0  0  0  0  0  0  0  0
   -2.2444    2.7229   -1.7412 C   0  0  0  0  0  0  0  0  0  0  0  0
   -3.0364    2.0989   -2.1839 H   0  0  0  0  0  0  0  0  0  0  0  0
   -2.2142    4.1022   -2.0509 C   0  0  0  0  0  0  0  0  0  0  0  0
   -2.9230    4.5162   -2.7827 H   0  0  0  0  0  0  0  0  0  0  0  0
   -1.3547    4.9263   -1.3470 C   0  0  0  0  0  0  0  0  0  0  0  0
   -1.3876    6.0192   -1.4758 H   0  0  0  0  0  0  0  0  0  0  0  0
   -0.3973    4.3791   -0.4440 C   0  0  0  0  0  0  0  0  0  0  0  0
   -0.2954    2.9398   -0.2682 C   0  0  0  0  0  0  0  0  0  0  0  0
    0.8741    2.4613    0.4298 C   0  0  0  0  0  0  0  0  0  0  0  0
    1.7072    3.3613    1.1018 C   0  0  0  0  0  0  0  0  0  0  0  0
    2.6137    2.9885    1.6021 H   0  0  0  0  0  0  0  0  0  0  0  0
    1.4729    4.7551    1.0863 C   0  0  0  0  0  0  0  0  0  0  0  0
    2.1344    5.4309    1.6475 H   0  0  0  0  0  0  0  0  0  0  0  0
    0.4728    5.2531    0.2702 C   0  0  0  0  0  0  0  0  0  0  0  0
    0.3413    6.3387    0.1422 H   0  0  0  0  0  0  0  0  0  0  0  0
    2.1831    0.0735    1.6478 C   0  0  0  0  0  0  0  0  0  0  0  0
    1.8498    0.5829    2.9161 C   0  0  0  0  0  0  0  0  0  0  0  0
    1.2081    1.4698    3.0066 H   0  0  0  0  0  0  0  0  0  0  0  0
    2.3138   -0.0689    4.0684 C   0  0  0  0  0  0  0  0  0  0  0  0
    2.0474    0.3271    5.0597 H   0  0  0  0  0  0  0  0  0  0  0  0
    3.0856   -1.2351    3.9587 C   0  0  0  0  0  0  0  0  0  0  0  0
    3.4328   -1.7513    4.8666 H   0  0  0  0  0  0  0  0  0  0  0  0
    3.4066   -1.7522    2.6921 C   0  0  0  0  0  0  0  0  0  0  0  0
    3.9915   -2.6786    2.5963 H   0  0  0  0  0  0  0  0  0  0  0  0
    2.9713   -1.0928    1.5375 C   0  0  0  0  0  0  0  0  0  0  0  0
    3.2280   -1.4991    0.5489 H   0  0  0  0  0  0  0  0  0  0  0  0
    3.1924    1.2437   -0.8012 C   0  0  0  0  0  0  0  0  0  0  0  0
    3.1351    1.2599   -2.2092 C   0  0  0  0  0  0  0  0  0  0  0  0
    2.1921    0.9948   -2.7106 H   0  0  0  0  0  0  0  0  0  0  0  0
    4.2818    1.5847   -2.9481 C   0  0  0  0  0  0  0  0  0  0  0  0
    4.2383    1.5906   -4.0476 H   0  0  0  0  0  0  0  0  0  0  0  0
    5.4834    1.8891   -2.2880 C   0  0  0  0  0  0  0  0  0  0  0  0
    6.3830    2.1393   -2.8708 H   0  0  0  0  0  0  0  0  0  0  0  0
    5.5435    1.8603   -0.8850 C   0  0  0  0  0  0  0  0  0  0  0  0
    6.4897    2.0803   -0.3679 H   0  0  0  0  0  0  0  0  0  0  0  0
    4.4010    1.5363   -0.1390 C   0  0  0  0  0  0  0  0  0  0  0  0
    4.4573    1.4867    0.9594 H   0  0  0  0  0  0  0  0  0  0  0  0
  1  3  1  6  0  0  0
  1 15  1  0  0  0  0
  1 14  1  0  0  0  0
  2 35  1  0  0  0  0
  2 42  1  0  0  0  0
  4  2  1  0  0  0  0
  5 14  2  0  0  0  0
  5  6  1  0  0  0  0
  6  8  2  0  0  0  0
  7  6  1  0  0  0  0
  8 10  1  0  0  0  0
  8  9  1  0  0  0  0
 10 11  1  0  0  0  0
 12 13  1  0  0  0  0
 12 10  2  0  0  0  0
 14 12  1  0  0  0  0
 15 24  1  0  0  0  0
 16 18  1  0  0  0  0
 16 15  2  0  0  0  0
 17 16  1  0  0  0  0
 18 20  2  0  0  0  0
 19 18  1  0  0  0  0
 20 21  1  0  0  0  0
 20 22  1  0  0  0  0
 22 23  1  0  0  0  0
 24 25  1  0  0  0  0
 24 22  2  0  0  0  0
 26  1  1  0  0  0  0
 26 34  1  0  0  0  0
 27 26  2  0  0  0  0
 28 27  1  0  0  0  0
 29 27  1  0  0  0  0
 29 31  2  0  0  0  0
 30 29  1  0  0  0  0
 31 33  1  0  0  0  0
 32 31  1  0  0  0  0
 33 34  2  0  0  0  0
 33 40  1  0  0  0  0
 34 35  1  0  0  0  0
 35 36  2  0  0  0  0
 36 37  1  0  0  0  0
 38 36  1  0  0  0  0
 38 39  1  0  0  0  0
 40 38  2  0  0  0  0
 41 40  1  0  0  0  0
 42 43  1  0  0  0  0
 43 44  1  0  0  0  0
 43 45  2  0  0  0  0
 45 46  1  0  0  0  0
 47 45  1  0  0  0  0
 47 48  1  0  0  0  0
 49 47  2  0  0  0  0
 50 49  1  0  0  0  0
 51 42  2  0  0  0  0
 51 49  1  0  0  0  0
 52 51  1  0  0  0  0
 53 62  1  0  0  0  0
 53  2  1  0  0  0  0
 54 53  2  0  0  0  0
 55 54  1  0  0  0  0
 56 58  2  0  0  0  0
 56 54  1  0  0  0  0
 57 56  1  0  0  0  0
 58 60  1  0  0  0  0
 59 58  1  0  0  0  0
 60 61  1  0  0  0  0
 60 62  2  0  0  0  0
 62 63  1  0  0  0  0
M  END
