1,2,5
q = -2.0, confidence = 0.954

 57 61  0  0  1  0  0  0  0  0999 V2000
   -1.7928   -0.9150   -1.6446 O   0  5  0  0  0  0  0  0  0  0  0  0
   -1.3885    2.3559    0.1311 O   0  5  0  0  0  0  0  0  0  0  0  0
    1.1872   -0.4556   -0.9854 N   0  0  0  0  0  0  0  0  0  0  0  0
    0.7737    0.2858    1.0173 N   0  0  0  0  0  0  0  0  0  0  0  0
    0.2860    0.1993   -0.2315 C   0  0  0  0  0  2  0  0  0  0  0  0
    2.4055   -0.8423   -0.2476 C   0  0  2  0  0  0  0  0  0  0  0  0
    2.5863   -1.9313   -0.3631 H   0  0  0  0  0  0  0  0  0  0  0  0
    1.9927   -0.5289    1.2235 C   0  0  2  0  0  0  0  0  0  0  0  0
    2.7757    0.0750    1.7252 H   0  0  0  0  0  0  0  0  0  0  0  0
    0.9360   -0.9597   -2.3328 C   0  0  0  0  0  0  0  0  0  0  0  0
    1.9145   -1.1322   -2.8216 H   0  0  0  0  0  0  0  0  0  0  0  0
    0.4014   -0.1608   -2.8808 H   0  0  0  0  0  0  0  0  0  0  0  0
    0.1141   -2.2230   -2.2769 C   0  0  0  0  0  0  0  0  0  0  0  0
   -1.2560   -2.1027   -1.8894 C   0  0  0  0  0  0  0  0  0  0  0  0
   -2.0362   -3.2819   -1.7809 C   0  0  0  0  0  0  0  0  0  0  0  0
   -3.0980   -3.1779   -1.5147 H   0  0  0  0  0  0  0  0  0  0  0  0
   -1.4686   -4.5393   -2.0274 C   0  0  0  0  0  0  0  0  0  0  0  0
   -2.0945   -5.4411   -1.9390 H   0  0  0  0  0  0  0  0  0  0  0  0
   -0.1173   -4.6566   -2.3932 C   0  0  0  0  0  0  0  0  0  0  0  0
    0.3253   -5.6443   -2.5891 H   0  0  0  0  0  0  0  0  0  0  0  0
    0.6604   -3.4934   -2.5171 C   0  0  0  0  0  0  0  0  0  0  0  0
    1.7194   -3.5683   -2.8155 H   0  0  0  0  0  0  0  0  0  0  0  0
    0.1553    1.0185    2.1224 C   0  0  0  0  0  0  0  0  0  0  0  0
    0.6946    0.7356    3.0463 H   0  0  0  0  0  0  0  0  0  0  0  0
   -0.8863    0.6581    2.2176 H   0  0  0  0  0  0  0  0  0  0  0  0
    0.2025    2.5137    1.9245 C   0  0  0  0  0  0  0  0  0  0  0  0
   -0.6016    3.1014    0.9032 C   0  0  0  0  0  0  0  0  0  0  0  0
   -0.5590    4.5044    0.7147 C   0  0  0  0  0  0  0  0  0  0  0  0
   -1.1982    4.9381   -0.0681 H   0  0  0  0  0  0  0  0  0  0  0  0
    0.2673    5.3054    1.5123 C   0  0  0  0  0  0  0  0  0  0  0  0
    0.2856    6.3944    1.3505 H   0  0  0  0  0  0  0  0  0  0  0  0
    1.0658    4.7294    2.5144 C   0  0  0  0  0  0  0  0  0  0  0  0
    1.7134    5.3581    3.1430 H   0  0  0  0  0  0  0  0  0  0  0  0
    1.0239    3.3401    2.7095 C   0  0  0  0  0  0  0  0  0  0  0  0
    1.6410    2.8779    3.4977 H   0  0  0  0  0  0  0  0  0  0  0  0
    3.6208   -0.0698   -0.7231 C   0  0  0  0  0  0  0  0  0  0  0  0
    3.5185    1.3029   -1.0271 C   0  0  0  0  0  0  0  0  0  0  0  0
    2.5392    1.8027   -0.9645 H   0  0  0  0  0  0  0  0  0  0  0  0
    4.6541    2.0270   -1.4160 C   0  0  0  0  0  0  0  0  0  0  0  0
    4.5633    3.0983   -1.6512 H   0  0  0  0  0  0  0  0  0  0  0  0
    5.9020    1.3884   -1.5094 C   0  0  0  0  0  0  0  0  0  0  0  0
    6.7915    1.9575   -1.8194 H   0  0  0  0  0  0  0  0  0  0  0  0
    6.0096    0.0209   -1.2126 C   0  0  0  0  0  0  0  0  0  0  0  0
    6.9829   -0.4869   -1.2917 H   0  0  0  0  0  0  0  0  0  0  0  0
    4.8730   -0.7037   -0.8214 C   0  0  0  0  0  0  0  0  0  0  0  0
    4.9556   -1.7780   -0.5902 H   0  0  0  0  0  0  0  0  0  0  0  0
    1.6709   -1.7553    2.0572 C   0  0  0  0  0  0  0  0  0  0  0  0
    0.6818   -2.6630    1.6204 C   0  0  0  0  0  0  0  0  0  0  0  0
    0.1572   -2.4917    0.6668 H   0  0  0  0  0  0  0  0  0  0  0  0
    0.3638   -3.7884    2.3911 C   0  0  0  0  0  0  0  0  0  0  0  0
   -0.4055   -4.4899    2.0338 H   0  0  0  0  0  0  0  0  0  0  0  0
    1.0254   -4.0200    3.6102 C   0  0  0  0  0  0  0  0  0  0  0  0
    0.7721   -4.9025    4.2170 H   0  0  0  0  0  0  0  0  0  0  0  0
    2.0106   -3.1235    4.0497 C   0  0  0  0  0  0  0  0  0  0  0  0
    2.5326   -3.2995    5.0025 H   0  0  0  0  0  0  0  0  0  0  0  0
    2.3314   -1.9965    3.2744 C   0  0  0  0  0  0  0  0  0  0  0  0
    3.1059   -1.2923    3.6188 H   0  0  0  0  0  0  0  0  0  0  0  0
  2 27  1  0  0  0  0
  3  6  1  0  0  0  0
  3  5  1  0  0  0  0
  4  8  1  0  0  0  0
  4 23  1  0  0  0  0
  5  4  1  0  0  0  0
  6  7  1  6  0  0  0
  6  8  1  0  0  0  0
  8  9  1  1  0  0  0
  8 47  1  0  0  0  0
 10 13  1  0  0  0  0
 10  3  1  0  0  0  0
 11 10  1  0  0  0  0
 12 10  1  0  0  0  0
 13 14  1  0  0  0  0
 14 15  2  0  0  0  0
 14  1  1  0  0  0  0
 15 16  1  0  0  0  0
 17 18  1  0  0  0  0
 17 15  1  0  0  0  0
 19 17  2  0  0  0  0
 20 19  1  0  0  0  0
 21 19  1  0  0  0  0
 21 13  2  0  0  0  0
 22 21  1  0  0  0  0
 23 25  1  0  0  0  0
 23 24  1  0  0  0  0
 26 23  1  0  0  0  0
 26 34  1  0  0  0  0
 27 26  2  0  0  0  0
 28 27  1  0  0  0  0
 28 30  2  0  0  0  0
 29 28  1  0  0  0  0
 30 32  1  0  0  0  0
 31 30  1  0  0  0  0
 32 34  2  0  0  0  0
 32 33  1  0  0  0  0
 34 35  1  0  0  0  0
 36  6  1  0  0  0  0
 37 38  1  0  0  0  0
 37 36  2  0  0  0  0
 39 37  1  0  0  0  0
 40 39  1  0  0  0  0
 41 39  2  0  0  0  0
 41 43  1  0  0  0  0
 42 41  1  0  0  0  0
 43 45  2  0  0  0  0
 44 43  1  0  0  0  0
 45 36  1  0  0  0  0
 45 46  1  0  0  0  0
 47 56  1  0  0  0  0
 48 47  2  0  0  0  0
 48 50  1  0  0  0  0
 49 48  1  0  0  0  0
 50 52  2  0  0  0  0
 51 50  1  0  0  0  0
 52 54  1  0  0  0  0
 52 53  1  0  0  0  0
 54 55  1  0  0  0  0
 56 57  1  0  0  0  0
 56 54  2  0  0  0  0
M  CHG  2   1  -1   2  -1
M  END
