1,2,3
q = -1.0, confidence = 0.212

 55 57  0  0  0  0  0  0  0  0999 V2000
   -1.9115   -0.1825    0.5504 O   0  5  0  0  0  0  0  0  0  0  0  0
    1.8762   -0.3310    0.0558 O   0  5  0  0  0  0  0  0  0  0  0  0
    0.0910    1.6934    0.0148 C   0  0  0  0  0  3  0  0  0  0  0  0
   -1.1357    2.4659   -0.0061 C   0  0  0  0  0  0  0  0  0  0  0  0
   -1.1434    3.8158    0.3994 C   0  0  0  0  0  0  0  0  0  0  0  0
   -2.1040    4.3508    0.4519 H   0  0  0  0  0  0  0  0  0  0  0  0
    0.0348    4.4690    0.7826 C   0  0  0  0  0  0  0  0  0  0  0  0
    0.0091    5.5036    1.1553 H   0  0  0  0  0  0  0  0  0  0  0  0
    1.2468    3.7902    0.6533 C   0  0  0  0  0  0  0  0  0  0  0  0
    2.1743    4.3187    0.9160 H   0  0  0  0  0  0  0  0  0  0  0  0
    1.3192    2.4404    0.2229 C   0  0  0  0  0  0  0  0  0  0  0  0
   -2.4442    1.9027   -0.4332 C   0  0  0  0  0  0  0  0  0  0  0  0
   -3.3594    2.7005   -1.1540 C   0  0  0  0  0  0  0  0  0  0  0  0
   -3.0546    3.7141   -1.4537 H   0  0  0  0  0  0  0  0  0  0  0  0
   -4.6161    2.2111   -1.5165 C   0  0  0  0  0  0  0  0  0  0  0  0
   -5.3110    2.8404   -2.0924 H   0  0  0  0  0  0  0  0  0  0  0  0
   -4.9901    0.9117   -1.1447 C   0  0  0  0  0  0  0  0  0  0  0  0
   -5.9881    0.5496   -1.4246 H   0  0  0  0  0  0  0  0  0  0  0  0
   -4.1205    0.0621   -0.4342 C   0  0  0  0  0  0  0  0  0  0  0  0
   -2.8275    0.5706   -0.1112 C   0  0  0  0  0  0  0  0  0  0  0  0
   -4.5507   -1.3552   -0.0149 C   0  0  0  0  0  0  0  0  0  0  0  0
   -6.0008   -1.6781   -0.4186 C   0  0  0  0  0  0  0  0  0  0  0  0
   -6.7258   -0.9827    0.0497 H   0  0  0  0  0  0  0  0  0  0  0  0
   -6.2569   -2.7040   -0.0837 H   0  0  0  0  0  0  0  0  0  0  0  0
   -6.1450   -1.6411   -1.5170 H   0  0  0  0  0  0  0  0  0  0  0  0
   -4.4635   -1.4743    1.5245 C   0  0  0  0  0  0  0  0  0  0  0  0
   -5.2051   -0.8034    2.0025 H   0  0  0  0  0  0  0  0  0  0  0  0
   -3.4637   -1.1813    1.8947 H   0  0  0  0  0  0  0  0  0  0  0  0
   -4.6791   -2.5130    1.8528 H   0  0  0  0  0  0  0  0  0  0  0  0
   -3.6355   -2.3877   -0.7122 C   0  0  0  0  0  0  0  0  0  0  0  0
   -2.5737   -2.1304   -0.5556 H   0  0  0  0  0  0  0  0  0  0  0  0
   -3.8149   -2.3839   -1.8062 H   0  0  0  0  0  0  0  0  0  0  0  0
   -3.8296   -3.4139   -0.3343 H   0  0  0  0  0  0  0  0  0  0  0  0
    2.6722    1.8912   -0.0445 C   0  0  0  0  0  0  0  0  0  0  0  0
    3.7736    2.7517   -0.2808 C   0  0  0  0  0  0  0  0  0  0  0  0
    3.6164    3.8386   -0.2725 H   0  0  0  0  0  0  0  0  0  0  0  0
    5.0436    2.2574   -0.5691 C   0  0  0  0  0  0  0  0  0  0  0  0
    5.8758    2.9537   -0.7517 H   0  0  0  0  0  0  0  0  0  0  0  0
    5.2570    0.8724   -0.6567 C   0  0  0  0  0  0  0  0  0  0  0  0
    6.2626    0.5060   -0.8998 H   0  0  0  0  0  0  0  0  0  0  0  0
    4.2115   -0.0444   -0.4614 C   0  0  0  0  0  0  0  0  0  0  0  0
    2.9241    0.4893   -0.1458 C   0  0  0  0  0  0  0  0  0  0  0  0
    4.4439   -1.5615   -0.5858 C   0  0  0  0  0  0  0  0  0  0  0  0
    5.8985   -1.9005   -0.9617 C   0  0  0  0  0  0  0  0  0  0  0  0
    6.6196   -1.5486   -0.1969 H   0  0  0  0  0  0  0  0  0  0  0  0
    6.1871   -1.4630   -1.9384 H   0  0  0  0  0  0  0  0  0  0  0  0
    6.0096   -3.0009   -1.0430 H   0  0  0  0  0  0  0  0  0  0  0  0
    4.1525   -2.2325    0.7754 C   0  0  0  0  0  0  0  0  0  0  0  0
    4.8662   -1.8706    1.5429 H   0  0  0  0  0  0  0  0  0  0  0  0
    4.2571   -3.3356    0.7015 H   0  0  0  0  0  0  0  0  0  0  0  0
    3.1312   -1.9991    1.1243 H   0  0  0  0  0  0  0  0  0  0  0  0
    3.5352   -2.1341   -1.6992 C   0  0  0  0  0  0  0  0  0  0  0  0
    3.8165   -1.7046   -2.6818 H   0  0  0  0  0  0  0  0  0  0  0  0
    2.4714   -1.8943   -1.5252 H   0  0  0  0  0  0  0  0  0  0  0  0
    3.6489   -3.2369   -1.7649 H   0  0  0  0  0  0  0  0  0  0  0  0
  3 11  1  0  0  0  0
  4  3  2  0  0  0  0
  4  5  1  0  0  0  0
  5  6  1  0  0  0  0
  5  7  2  0  0  0  0
  7  8  1  0  0  0  0
  9  7  1  0  0  0  0
  9 10  1  0  0  0  0
 11  9  2  0  0  0  0
 12 20  1  0  0  0  0
 12  4  1  0  0  0  0
 13 12  2  0  0  0  0
 14 13  1  0  0  0  0
 15 13  1  0  0  0  0
 15 17  2  0  0  0  0
 16 15  1  0  0  0  0
 17 19  1  0  0  0  0
 18 17  1  0  0  0  0
 19 20  2  0  0  0  0
 19 21  1  0  0  0  0
 20  1  1  0  0  0  0
 21 26  1  0  0  0  0
 22 24  1  0  0  0  0
 22 21  1  0  0  0  0
 22 23  1  0  0  0  0
 25 22  1  0  0  0  0
 26 29  1  0  0  0  0
 26 28  1  0  0  0  0
 26 27  1  0  0  0  0
 30 31  1  0  0  0  0
 30 33  1  0  0  0  0
 30 21  1  0  0  0  0
 32 30  1  0  0  0  0
 34 11  1  0  0  0  0
 35 36  1  0  0  0  0
 35 34  2  0  0  0  0
 37 35  1  0  0  0  0
 38 37  1  0  0  0  0
 39 37  2  0  0  0  0
 39 41  1  0  0  0  0
 40 39  1  0  0  0  0
 41 42  2  0  0  0  0
 42 34  1  0  0  0  0
 42  2  1  0  0  0  0
 43 41  1  0  0  0  0
 43 48  1  0  0  0  0
 44 43  1  0  0  0  0
 44 45  1  0  0  0  0
 46 44  1  0  0  0  0
 47 44  1  0  0  0  0
 48 51  1  0  0  0  0
 48 49  1  0  0  0  0
 50 48  1  0  0  0  0
 52 54  1  0  0  0  0
 52 43  1  0  0  0  0
 53 52  1  0  0  0  0
 55 52  1  0  0  0  0
M  CHG  2   1  -1   2  -1
M  END
