1,2,5
q = -1.0, confidence = 0.02

 43 43  0  0  0  0  0  0  0  0999 V2000
    1.9905   -0.8454    0.0015 O   0  0  0  0  0  1  0  0  0  0  0  0
   -1.9905   -0.8454   -0.0010 O   0  0  0  0  0  1  0  0  0  0  0  0
    2.8391    0.1398    0.0007 N   0  0  0  0  0  0  0  0  0  0  0  0
   -2.8391    0.1398   -0.0006 N   0  0  0  0  0  0  0  0  0  0  0  0
   -0.0000    1.2762    0.0001 C   0  0  0  0  0  2  0  0  0  0  0  0
   -1.2219    2.0239   -0.0001 C   0  0  0  0  0  0  0  0  0  0  0  0
   -1.2048    3.4461   -0.0000 C   0  0  0  0  0  0  0  0  0  0  0  0
   -2.1615    3.9931   -0.0002 H   0  0  0  0  0  0  0  0  0  0  0  0
   -0.0000    4.1525    0.0002 C   0  0  0  0  0  0  0  0  0  0  0  0
   -0.0000    5.2522    0.0002 H   0  0  0  0  0  0  0  0  0  0  0  0
    1.2048    3.4461    0.0003 C   0  0  0  0  0  0  0  0  0  0  0  0
    2.1615    3.9931    0.0005 H   0  0  0  0  0  0  0  0  0  0  0  0
    1.2219    2.0239    0.0002 C   0  0  0  0  0  0  0  0  0  0  0  0
    2.5363    1.4255    0.0002 C   0  0  0  0  0  3  0  0  0  0  0  0
    3.4017    2.0968   -0.0004 H   0  0  0  0  0  0  0  0  0  0  0  0
   -2.5363    1.4255   -0.0002 C   0  0  0  0  0  0  0  0  0  0  0  0
   -3.4017    2.0968   -0.0000 H   0  0  0  0  0  0  0  0  0  0  0  0
    4.2644   -0.3989   -0.0004 C   0  0  0  0  0  0  0  0  0  0  0  0
   -4.2644   -0.3989   -0.0001 C   0  0  0  0  0  0  0  0  0  0  0  0
    5.2960    0.7303   -0.0006 C   0  0  0  0  0  0  0  0  0  0  0  0
    5.2245    1.3669    0.9035 H   0  0  0  0  0  0  0  0  0  0  0  0
    5.2240    1.3671   -0.9046 H   0  0  0  0  0  0  0  0  0  0  0  0
    6.3033    0.2712   -0.0009 H   0  0  0  0  0  0  0  0  0  0  0  0
    4.4014   -1.2587    1.2670 C   0  0  0  0  0  0  0  0  0  0  0  0
    5.4089   -1.7174    1.2925 H   0  0  0  0  0  0  0  0  0  0  0  0
    3.6389   -2.0592    1.2729 H   0  0  0  0  0  0  0  0  0  0  0  0
    4.2754   -0.6400    2.1781 H   0  0  0  0  0  0  0  0  0  0  0  0
    4.3996   -1.2577   -1.2686 C   0  0  0  0  0  0  0  0  0  0  0  0
    5.4070   -1.7167   -1.2958 H   0  0  0  0  0  0  0  0  0  0  0  0
    4.2726   -0.6384   -2.1791 H   0  0  0  0  0  0  0  0  0  0  0  0
    3.6370   -2.0582   -1.2740 H   0  0  0  0  0  0  0  0  0  0  0  0
   -5.2960    0.7303   -0.0003 C   0  0  0  0  0  0  0  0  0  0  0  0
   -5.2243    1.3671    0.9037 H   0  0  0  0  0  0  0  0  0  0  0  0
   -6.3033    0.2713   -0.0003 H   0  0  0  0  0  0  0  0  0  0  0  0
   -5.2242    1.3669   -0.9044 H   0  0  0  0  0  0  0  0  0  0  0  0
   -4.4009   -1.2587   -1.2676 C   0  0  0  0  0  0  0  0  0  0  0  0
   -4.2745   -0.6400   -2.1786 H   0  0  0  0  0  0  0  0  0  0  0  0
   -5.4084   -1.7174   -1.2935 H   0  0  0  0  0  0  0  0  0  0  0  0
   -3.6384   -2.0592   -1.2732 H   0  0  0  0  0  0  0  0  0  0  0  0
   -4.4002   -1.2578    1.2681 C   0  0  0  0  0  0  0  0  0  0  0  0
   -3.6375   -2.0582    1.2738 H   0  0  0  0  0  0  0  0  0  0  0  0
   -5.4076   -1.7167    1.2948 H   0  0  0  0  0  0  0  0  0  0  0  0
   -4.2734   -0.6384    2.1786 H   0  0  0  0  0  0  0  0  0  0  0  0
  2  4  1  0  0  0  0
  3  1  1  0  0  0  0
  4 16  1  0  0  0  0
  4 19  1  0  0  0  0
  5 13  1  0  0  0  0
  6  7  1  0  0  0  0
  6  5  1  0  0  0  0
  7  9  2  0  0  0  0
  8  7  1  0  0  0  0
  9 10  1  0  0  0  0
  9 11  1  0  0  0  0
 11 12  1  0  0  0  0
 13 11  2  0  0  0  0
 14 13  1  0  0  0  0
 14  3  1  0  0  0  0
 15 14  1  0  0  0  0
 16  6  2  0  0  0  0
 16 17  1  0  0  0  0
 18  3  1  0  0  0  0
 18 24  1  0  0  0  0
 19 40  1  0  0  0  0
 20 18  1  0  0  0  0
 20 21  1  0  0  0  0
 22 20  1  0  0  0  0
 23 20  1  0  0  0  0
 24 26  1  0  0  0  0
 24 25  1  0  0  0  0
 24 27  1  0  0  0  0
 28 18  1  0  0  0  0
 29 28  1  0  0  0  0
 30 28  1  0  0  0  0
 31 28  1  0  0  0  0
 32 34  1  0  0  0  0
 32 19  1  0  0  0  0
 32 33  1  0  0  0  0
 35 32  1  0  0  0  0
 36 19  1  0  0  0  0
 37 36  1  0  0  0  0
 38 36  1  0  0  0  0
 39 36  1  0  0  0  0
 40 41  1  0  0  0  0
 40 42  1  0  0  0  0
 40 43  1  0  0  0  0
M  END
