13,14,17
 OpenBabel05122313063D

 33 33  0  0  0  0  0  0  0  0999 V2000
    4.1416    1.7738   -0.9162 F   0  0  0  0  0  0  0  0  0  0  0  0
    3.5735    3.6717   -1.8309 F   0  0  0  0  0  0  0  0  0  0  0  0
    3.1209    3.2804    0.2722 F   0  0  0  0  0  0  0  0  0  0  0  0
    1.0185    3.8586   -2.8293 F   0  0  0  0  0  0  0  0  0  0  0  0
   -0.4865    2.7738   -1.6857 F   0  0  0  0  0  0  0  0  0  0  0  0
    0.8146    4.1861   -0.6773 F   0  0  0  0  0  0  0  0  0  0  0  0
    0.4862   -2.7743   -1.6859 F   0  0  0  0  0  0  0  0  0  0  0  0
   -1.0193   -3.8594   -2.8286 F   0  0  0  0  0  0  0  0  0  0  0  0
   -0.8149   -4.1859   -0.6765 F   0  0  0  0  0  0  0  0  0  0  0  0
   -3.5741   -3.6712   -1.8307 F   0  0  0  0  0  0  0  0  0  0  0  0
   -4.1416   -1.7731   -0.9162 F   0  0  0  0  0  0  0  0  0  0  0  0
   -3.1214   -3.2800    0.2723 F   0  0  0  0  0  0  0  0  0  0  0  0
    1.3726    1.3206   -0.3101 O   0  0  0  0  0  1  0  0  0  0  0  0
   -1.3725   -1.3207   -0.3101 O   0  0  0  0  0  1  0  0  0  0  0  0
    0.8976    0.5972   -3.1335 N   0  0  0  0  0  0  0  0  0  0  0  0
   -0.8974   -0.5974   -3.1335 N   0  0  0  0  0  0  0  0  0  0  0  0
    0.0001   -0.0002   -2.2989 C   0  0  0  0  0  2  0  0  0  0  0  0
   -0.5705   -0.3804   -4.4657 C   0  0  0  0  0  0  0  0  0  0  0  0
   -1.1729   -0.7731   -5.2898 H   0  0  0  0  0  0  0  0  0  0  0  0
    0.5704    0.3805   -4.4657 C   0  0  0  0  0  0  0  0  0  0  0  0
    1.1729    0.7733   -5.2898 H   0  0  0  0  0  0  0  0  0  0  0  0
    2.0868    1.2864   -2.6577 C   0  0  0  0  0  0  0  0  0  0  0  0
    2.4581    1.9501   -3.4597 H   0  0  0  0  0  0  0  0  0  0  0  0
    2.8685    0.5422   -2.4131 H   0  0  0  0  0  0  0  0  0  0  0  0
    1.8080    2.0913   -1.3640 C   0  0  0  0  0  0  0  0  0  0  0  0
    3.1803    2.7261   -0.9417 C   0  0  0  0  0  0  0  0  0  0  0  0
    0.7809    3.2487   -1.6423 C   0  0  0  0  0  0  0  0  0  0  0  0
   -2.0867   -1.2865   -2.6578 C   0  0  0  0  0  0  0  0  0  0  0  0
   -2.4579   -1.9503   -3.4597 H   0  0  0  0  0  0  0  0  0  0  0  0
   -2.8684   -0.5422   -2.4134 H   0  0  0  0  0  0  0  0  0  0  0  0
   -1.8081   -2.0914   -1.3639 C   0  0  0  0  0  0  0  0  0  0  0  0
   -0.7813   -3.2490   -1.6420 C   0  0  0  0  0  0  0  0  0  0  0  0
   -3.1806   -2.7257   -0.9417 C   0  0  0  0  0  0  0  0  0  0  0  0
  2 26  1  0  0  0  0
  4 27  1  0  0  0  0
  5 27  1  0  0  0  0
  7 32  1  0  0  0  0
  8 32  1  0  0  0  0
 10 33  1  0  0  0  0
 15 22  1  0  0  0  0
 15 17  1  0  0  0  0
 16 28  1  0  0  0  0
 16 17  1  0  0  0  0
 18 20  2  0  0  0  0
 18 16  1  0  0  0  0
 19 18  1  0  0  0  0
 20 15  1  0  0  0  0
 21 20  1  0  0  0  0
 22 24  1  0  0  0  0
 22 25  1  0  0  0  0
 23 22  1  0  0  0  0
 25 26  1  0  0  0  0
 25 13  1  0  0  0  0
 26  1  1  0  0  0  0
 26  3  1  0  0  0  0
 27 25  1  0  0  0  0
 27  6  1  0  0  0  0
 28 30  1  0  0  0  0
 28 31  1  0  0  0  0
 29 28  1  0  0  0  0
 31 33  1  0  0  0  0
 31 14  1  0  0  0  0
 32 31  1  0  0  0  0
 32  9  1  0  0  0  0
 33 11  1  0  0  0  0
 33 12  1  0  0  0  0
M  END
