1,2,9
q = -1.0, confidence = 0.372

 50 49  0  0  1  0  0  0  0  0999 V2000
    1.7349    0.0655   -0.8510 O   0  0  0  0  0  1  0  0  0  0  0  0
   -0.8809   -0.7922   -0.4735 O   0  0  0  0  0  1  0  0  0  0  0  0
    2.3363   -0.7481    0.1655 C   0  0  0  0  0  0  0  0  0  0  0  0
    2.0739   -2.2330   -0.1775 C   0  0  0  0  0  0  0  0  0  0  0  0
    2.6728   -2.7016   -1.5022 C   0  0  0  0  0  0  0  0  0  0  0  0
    3.8486   -0.4194    0.1716 C   0  0  0  0  0  0  0  0  0  0  0  0
    4.7160   -1.2815    1.0888 C   0  0  0  0  0  0  0  0  0  0  0  0
    1.6173   -0.3804    1.5069 C   0  0  0  0  0  0  0  0  0  0  0  0
    1.0520    1.0447    1.4712 C   0  0  2  0  0  3  0  0  0  0  0  0
    2.0915    2.1378    1.6489 C   0  0  0  0  0  0  0  0  0  0  0  0
   -0.3016    1.4034    1.7998 C   0  0  0  0  0  3  0  0  0  0  0  0
   -1.5519    0.7739    1.7480 C   0  0  2  0  0  3  0  0  0  0  0  0
   -2.7717    1.6360    1.9935 C   0  0  0  0  0  0  0  0  0  0  0  0
   -1.8215   -0.7127    1.7061 C   0  0  0  0  0  0  0  0  0  0  0  0
   -1.9806   -1.2861    0.2638 C   0  0  0  0  0  0  0  0  0  0  0  0
   -1.8886   -2.8290    0.3105 C   0  0  0  0  0  0  0  0  0  0  0  0
   -1.9205   -3.5101   -1.0561 C   0  0  0  0  0  0  0  0  0  0  0  0
   -3.2706   -0.7998   -0.4374 C   0  0  0  0  0  0  0  0  0  0  0  0
   -4.5945   -1.2708    0.1614 C   0  0  0  0  0  0  0  0  0  0  0  0
    2.7672    2.2189    0.7740 H   0  0  0  0  0  0  0  0  0  0  0  0
    2.7347    1.9423    2.5374 H   0  0  0  0  0  0  0  0  0  0  0  0
    1.6192    3.1296    1.7942 H   0  0  0  0  0  0  0  0  0  0  0  0
   -3.5818    1.4481    1.2577 H   0  0  0  0  0  0  0  0  0  0  0  0
   -2.5327    2.7175    1.9690 H   0  0  0  0  0  0  0  0  0  0  0  0
   -3.2124    1.4144    2.9922 H   0  0  0  0  0  0  0  0  0  0  0  0
    2.4329   -2.8641    0.6644 H   0  0  0  0  0  0  0  0  0  0  0  0
    0.9724   -2.3493   -0.2142 H   0  0  0  0  0  0  0  0  0  0  0  0
    2.3632   -2.0210   -2.3203 H   0  0  0  0  0  0  0  0  0  0  0  0
    3.7817   -2.7270   -1.4848 H   0  0  0  0  0  0  0  0  0  0  0  0
    2.3231   -3.7225   -1.7565 H   0  0  0  0  0  0  0  0  0  0  0  0
    3.9681    0.6487    0.4386 H   0  0  0  0  0  0  0  0  0  0  0  0
    4.1984   -0.5045   -0.8783 H   0  0  0  0  0  0  0  0  0  0  0  0
    4.3692   -1.2442    2.1427 H   0  0  0  0  0  0  0  0  0  0  0  0
    5.7681   -0.9317    1.0799 H   0  0  0  0  0  0  0  0  0  0  0  0
    4.7211   -2.3467    0.7807 H   0  0  0  0  0  0  0  0  0  0  0  0
    2.3120   -0.4855    2.3716 H   0  0  0  0  0  0  0  0  0  0  0  0
    0.8122   -1.1171    1.6782 H   0  0  0  0  0  0  0  0  0  0  0  0
   -0.3992    2.4942    1.9491 H   0  0  0  0  0  0  0  0  0  0  0  0
   -1.0003   -1.2764    2.1906 H   0  0  0  0  0  0  0  0  0  0  0  0
   -2.7360   -0.9370    2.2945 H   0  0  0  0  0  0  0  0  0  0  0  0
   -2.7004   -3.2166    0.9628 H   0  0  0  0  0  0  0  0  0  0  0  0
   -0.9380   -3.0808    0.8270 H   0  0  0  0  0  0  0  0  0  0  0  0
   -1.7161   -4.5956   -0.9656 H   0  0  0  0  0  0  0  0  0  0  0  0
   -2.9038   -3.4005   -1.5571 H   0  0  0  0  0  0  0  0  0  0  0  0
   -1.1516   -3.0696   -1.7222 H   0  0  0  0  0  0  0  0  0  0  0  0
   -3.1989   -1.1190   -1.4983 H   0  0  0  0  0  0  0  0  0  0  0  0
   -3.2301    0.3086   -0.4626 H   0  0  0  0  0  0  0  0  0  0  0  0
   -4.7068   -0.9622    1.2213 H   0  0  0  0  0  0  0  0  0  0  0  0
   -5.4526   -0.8432   -0.3953 H   0  0  0  0  0  0  0  0  0  0  0  0
   -4.6983   -2.3743    0.1251 H   0  0  0  0  0  0  0  0  0  0  0  0
  1  3  1  0  0  0  0
  2 15  1  0  0  0  0
  3  6  1  0  0  0  0
  3  8  1  0  0  0  0
  4  3  1  0  0  0  0
  4 26  1  0  0  0  0
  5 29  1  0  0  0  0
  5  4  1  0  0  0  0
  6 31  1  0  0  0  0
  6  7  1  0  0  0  0
  7 33  1  0  0  0  0
  8 37  1  0  0  0  0
  8 36  1  0  0  0  0
  9  8  1  0  0  0  0
  9 10  1  0  0  0  0
  9 11  1  1  0  0  0
 10 22  1  0  0  0  0
 10 21  1  0  0  0  0
 11 38  1  0  0  0  0
 12 11  1  1  0  0  0
 12 13  1  0  0  0  0
 13 25  1  0  0  0  0
 14 12  1  0  0  0  0
 14 39  1  0  0  0  0
 14 40  1  0  0  0  0
 15 16  1  0  0  0  0
 15 14  1  0  0  0  0
 16 42  1  0  0  0  0
 16 41  1  0  0  0  0
 17 43  1  0  0  0  0
 17 16  1  0  0  0  0
 18 19  1  0  0  0  0
 18 15  1  0  0  0  0
 19 48  1  0  0  0  0
 20 10  1  0  0  0  0
 23 13  1  0  0  0  0
 24 13  1  0  0  0  0
 27  4  1  0  0  0  0
 28  5  1  0  0  0  0
 30  5  1  0  0  0  0
 32  6  1  0  0  0  0
 34  7  1  0  0  0  0
 35  7  1  0  0  0  0
 44 17  1  0  0  0  0
 45 17  1  0  0  0  0
 46 18  1  0  0  0  0
 47 18  1  0  0  0  0
 49 19  1  0  0  0  0
 50 19  1  0  0  0  0
M  END
