1,2,3
q = -1.0, confidence = 0.176

 68 73  0  0  1  0  0  0  0  0999 V2000
    0.6945   -2.3175   -0.1557 S   0  0  0  0  0  1  0  0  0  0  0  0
   -1.4876    0.6606   -1.3737 S   0  0  0  0  0  1  0  0  0  0  0  0
    2.3120    1.2318   -0.2149 S   0  0  0  0  0  1  0  0  0  0  0  0
    0.2201   -1.5680   -2.8190 N   0  0  0  0  0  0  0  0  0  0  0  0
   -1.3423   -2.8190   -1.9005 N   0  0  0  0  0  0  0  0  0  0  0  0
    0.7872    0.9370   -2.9967 N   0  0  0  0  0  0  0  0  0  0  0  0
   -0.1262    2.8217   -2.3146 N   0  0  0  0  0  0  0  0  0  0  0  0
    2.5737   -0.7315   -2.2022 N   0  0  0  0  0  0  0  0  0  0  0  0
    4.0550   -0.8430   -0.5771 N   0  0  0  0  0  0  0  0  0  0  0  0
    1.3266   -0.5183   -3.1115 B   0  0  1  0  0  0  0  0  0  0  0  0
    1.6948   -0.6850   -4.2732 H   0  0  0  0  0  0  0  0  0  0  0  0
   -0.7546   -1.8126   -3.7769 C   0  0  0  0  0  0  0  0  0  0  0  0
   -0.6742   -1.3943   -4.7839 H   0  0  0  0  0  0  0  0  0  0  0  0
   -1.7320   -2.5862   -3.2134 C   0  0  0  0  0  0  0  0  0  0  0  0
   -2.6716   -2.9793   -3.6100 H   0  0  0  0  0  0  0  0  0  0  0  0
   -0.1357   -2.1970   -1.6540 C   0  0  1  0  0  3  0  0  0  0  0  0
   -2.1491   -3.4781   -0.9167 C   0  0  0  0  0  0  0  0  0  0  0  0
   -2.7228   -2.7256    0.1229 C   0  0  0  0  0  0  0  0  0  0  0  0
   -2.5370   -1.6445    0.1875 H   0  0  0  0  0  0  0  0  0  0  0  0
   -3.5372   -3.3616    1.0632 C   0  0  0  0  0  0  0  0  0  0  0  0
   -3.9806   -2.7566    1.8690 H   0  0  0  0  0  0  0  0  0  0  0  0
   -3.7992   -4.7474    0.9882 C   0  0  0  0  0  0  0  0  0  0  0  0
   -3.2197   -5.4778   -0.0673 C   0  0  0  0  0  0  0  0  0  0  0  0
   -3.4110   -6.5594   -0.1464 H   0  0  0  0  0  0  0  0  0  0  0  0
   -2.3949   -4.8538   -1.0157 C   0  0  0  0  0  0  0  0  0  0  0  0
   -1.9326   -5.4327   -1.8287 H   0  0  0  0  0  0  0  0  0  0  0  0
   -4.6678   -5.4168    2.0226 C   0  0  0  0  0  0  0  0  0  0  0  0
   -5.6364   -4.8883    2.1386 H   0  0  0  0  0  0  0  0  0  0  0  0
   -4.1777   -5.4071    3.0191 H   0  0  0  0  0  0  0  0  0  0  0  0
   -4.8803   -6.4715    1.7619 H   0  0  0  0  0  0  0  0  0  0  0  0
    1.5261    1.9905   -3.5204 C   0  0  0  0  0  0  0  0  0  0  0  0
    2.3996    1.8084   -4.1526 H   0  0  0  0  0  0  0  0  0  0  0  0
    0.9735    3.1662   -3.0894 C   0  0  0  0  0  0  0  0  0  0  0  0
    1.2470    4.2092   -3.2686 H   0  0  0  0  0  0  0  0  0  0  0  0
   -0.2420    1.4461   -2.2546 C   0  0  2  0  0  3  0  0  0  0  0  0
   -0.8901    3.6994   -1.4799 C   0  0  0  0  0  0  0  0  0  0  0  0
   -2.2464    3.9368   -1.7472 C   0  0  0  0  0  0  0  0  0  0  0  0
   -2.7085    3.4950   -2.6408 H   0  0  0  0  0  0  0  0  0  0  0  0
   -2.9987    4.7040   -0.8504 C   0  0  0  0  0  0  0  0  0  0  0  0
   -4.0663    4.8802   -1.0553 H   0  0  0  0  0  0  0  0  0  0  0  0
   -2.4229    5.2339    0.3242 C   0  0  0  0  0  0  0  0  0  0  0  0
   -1.0521    5.0009    0.5564 C   0  0  0  0  0  0  0  0  0  0  0  0
   -0.5812    5.3992    1.4682 H   0  0  0  0  0  0  0  0  0  0  0  0
   -0.2859    4.2348   -0.3319 C   0  0  0  0  0  0  0  0  0  0  0  0
    0.7713    4.0116   -0.1255 H   0  0  0  0  0  0  0  0  0  0  0  0
   -3.2680    5.9676    1.3324 C   0  0  0  0  0  0  0  0  0  0  0  0
   -3.7529    5.2424    2.0214 H   0  0  0  0  0  0  0  0  0  0  0  0
   -4.0764    6.5491    0.8467 H   0  0  0  0  0  0  0  0  0  0  0  0
   -2.6637    6.6573    1.9530 H   0  0  0  0  0  0  0  0  0  0  0  0
    3.4346   -1.7843   -2.4762 C   0  0  0  0  0  0  0  0  0  0  0  0
    3.3023   -2.4047   -3.3668 H   0  0  0  0  0  0  0  0  0  0  0  0
    4.3589   -1.8622   -1.4714 C   0  0  0  0  0  0  0  0  0  0  0  0
    5.1876   -2.5523   -1.2936 H   0  0  0  0  0  0  0  0  0  0  0  0
    2.9528   -0.1410   -1.0266 C   0  0  1  0  0  3  0  0  0  0  0  0
    4.7536   -0.6108    0.6490 C   0  0  0  0  0  0  0  0  0  0  0  0
    4.0732   -0.7222    1.8739 C   0  0  0  0  0  0  0  0  0  0  0  0
    3.0036   -0.9721    1.8787 H   0  0  0  0  0  0  0  0  0  0  0  0
    4.7712   -0.5218    3.0678 C   0  0  0  0  0  0  0  0  0  0  0  0
    4.2317   -0.6096    4.0238 H   0  0  0  0  0  0  0  0  0  0  0  0
    6.1504   -0.2161    3.0715 C   0  0  0  0  0  0  0  0  0  0  0  0
    6.8117   -0.1220    1.8320 C   0  0  0  0  0  0  0  0  0  0  0  0
    7.8871    0.1134    1.8085 H   0  0  0  0  0  0  0  0  0  0  0  0
    6.1226   -0.3113    0.6246 C   0  0  0  0  0  0  0  0  0  0  0  0
    6.6428   -0.2170   -0.3401 H   0  0  0  0  0  0  0  0  0  0  0  0
    6.8806    0.0103    4.3706 C   0  0  0  0  0  0  0  0  0  0  0  0
    6.5134    0.9267    4.8790 H   0  0  0  0  0  0  0  0  0  0  0  0
    7.9705    0.1254    4.2144 H   0  0  0  0  0  0  0  0  0  0  0  0
    6.7210   -0.8314    5.0754 H   0  0  0  0  0  0  0  0  0  0  0  0
  4 16  1  0  0  0  0
  5 16  1  0  0  0  0
  5 17  1  0  0  0  0
  6 35  1  0  0  0  0
  7 35  1  0  0  0  0
  7 36  1  0  0  0  0
  8 54  1  0  0  0  0
  9 55  1  0  0  0  0
 10 11  1  6  0  0  0
 10  6  1  0  0  0  0
 10  4  1  0  0  0  0
 10  8  1  0  0  0  0
 12 14  2  0  0  0  0
 12  4  1  0  0  0  0
 13 12  1  0  0  0  0
 14  5  1  0  0  0  0
 15 14  1  0  0  0  0
 16  1  1  6  0  0  0
 17 18  1  0  0  0  0
 18 19  1  0  0  0  0
 18 20  2  0  0  0  0
 20 21  1  0  0  0  0
 22 20  1  0  0  0  0
 22 27  1  0  0  0  0
 23 22  2  0  0  0  0
 24 23  1  0  0  0  0
 25 17  2  0  0  0  0
 25 23  1  0  0  0  0
 26 25  1  0  0  0  0
 27 28  1  0  0  0  0
 27 29  1  0  0  0  0
 30 27  1  0  0  0  0
 31 33  2  0  0  0  0
 31  6  1  0  0  0  0
 32 31  1  0  0  0  0
 33  7  1  0  0  0  0
 34 33  1  0  0  0  0
 35  2  1  1  0  0  0
 36 44  1  0  0  0  0
 37 36  2  0  0  0  0
 37 39  1  0  0  0  0
 38 37  1  0  0  0  0
 39 41  2  0  0  0  0
 40 39  1  0  0  0  0
 41 42  1  0  0  0  0
 41 46  1  0  0  0  0
 42 43  1  0  0  0  0
 44 45  1  0  0  0  0
 44 42  2  0  0  0  0
 46 49  1  0  0  0  0
 46 47  1  0  0  0  0
 48 46  1  0  0  0  0
 50  8  1  0  0  0  0
 50 52  2  0  0  0  0
 51 50  1  0  0  0  0
 52 53  1  0  0  0  0
 52  9  1  0  0  0  0
 54  9  1  0  0  0  0
 54  3  1  6  0  0  0
 55 56  1  0  0  0  0
 56 57  1  0  0  0  0
 56 58  2  0  0  0  0
 58 60  1  0  0  0  0
 58 59  1  0  0  0  0
 60 65  1  0  0  0  0
 61 60  2  0  0  0  0
 62 61  1  0  0  0  0
 63 55  2  0  0  0  0
 63 61  1  0  0  0  0
 64 63  1  0  0  0  0
 65 66  1  0  0  0  0
 65 68  1  0  0  0  0
 67 65  1  0  0  0  0
M  END
