1,5,9
q = 0.0, confidence = 0.998

 21 21  0  0  0  0  0  0  0  0999 V2000
   -1.5040    0.7063    1.6100 S   0  0  0  0  0  0  0  0  0  0  0  0
   -4.0506    1.1303    0.2849 C   0  0  0  0  0  0  0  0  0  0  0  0
   -4.7913    1.9254    0.0620 H   0  0  0  0  0  0  0  0  0  0  0  0
   -4.5801    0.3662    0.8894 H   0  0  0  0  0  0  0  0  0  0  0  0
   -2.1292   -2.4815    0.1953 S   0  0  0  0  0  0  0  0  0  0  0  0
   -2.8952    1.7633    1.0598 C   0  0  0  0  0  0  0  0  0  0  0  0
   -3.3135    2.2956    1.9397 H   0  0  0  0  0  0  0  0  0  0  0  0
   -2.3548    2.5029    0.4311 H   0  0  0  0  0  0  0  0  0  0  0  0
   -3.5946    0.3607   -1.3270 S   0  0  0  0  0  0  0  0  0  0  0  0
   -2.3216   -0.6923    2.4660 C   0  0  0  0  0  0  0  0  0  0  0  0
   -2.0777   -0.6278    3.5469 H   0  0  0  0  0  0  0  0  0  0  0  0
   -3.4212   -0.5727    2.3874 H   0  0  0  0  0  0  0  0  0  0  0  0
   -1.8717   -2.0687    1.9646 C   0  0  0  0  0  0  0  0  0  0  0  0
   -2.3545   -2.8573    2.5792 H   0  0  0  0  0  0  0  0  0  0  0  0
   -0.7752   -2.1833    2.0851 H   0  0  0  0  0  0  0  0  0  0  0  0
   -3.9324   -2.1942    0.0002 C   0  0  0  0  0  0  0  0  0  0  0  0
   -4.4231   -3.1812   -0.1267 H   0  0  0  0  0  0  0  0  0  0  0  0
   -4.3174   -1.7704    0.9489 H   0  0  0  0  0  0  0  0  0  0  0  0
   -4.3301   -1.3138   -1.1880 C   0  0  0  0  0  0  0  0  0  0  0  0
   -5.4356   -1.2115   -1.2028 H   0  0  0  0  0  0  0  0  0  0  0  0
   -4.0377   -1.7908   -2.1459 H   0  0  0  0  0  0  0  0  0  0  0  0
  1 10  1  0  0  0  0
  2  4  1  0  0  0  0
  2  6  1  0  0  0  0
  3  2  1  0  0  0  0
  5 13  1  0  0  0  0
  6  1  1  0  0  0  0
  6  7  1  0  0  0  0
  8  6  1  0  0  0  0
  9 19  1  0  0  0  0
  9  2  1  0  0  0  0
 10 11  1  0  0  0  0
 12 10  1  0  0  0  0
 13 15  1  0  0  0  0
 13 10  1  0  0  0  0
 13 14  1  0  0  0  0
 16  5  1  0  0  0  0
 16 18  1  0  0  0  0
 17 16  1  0  0  0  0
 19 16  1  0  0  0  0
 20 19  1  0  0  0  0
 21 19  1  0  0  0  0
M  END
