3,4,5
q = -1.0

 56 61  0  0  1  0  0  0  0  0999 V2000
   -1.9689    0.0189   -0.0026 B   0  0  0  0  0  0  0  0  0  0  0  0
   -3.1950    0.0312   -0.0035 H   0  0  0  0  0  0  0  0  0  0  0  0
    0.7034   -1.8475    1.1211 S   0  0  0  0  0  1  0  0  0  0  0  0
    0.7221   -0.0603   -2.1557 S   0  0  0  0  0  1  0  0  0  0  0  0
    0.7380    1.8863    1.0325 S   0  0  0  0  0  1  0  0  0  0  0  0
   -1.5269   -1.3867   -0.4849 N   0  0  0  0  0  0  0  0  0  0  0  0
   -0.4190   -3.2670   -0.9205 N   0  0  0  0  0  0  0  0  0  0  0  0
   -1.5012    1.1331   -0.9739 N   0  0  0  0  0  0  0  0  0  0  0  0
   -0.3576    2.4361   -2.3692 N   0  0  0  0  0  0  0  0  0  0  0  0
   -1.5114    0.2963    1.4526 N   0  0  0  0  0  0  0  0  0  0  0  0
   -0.3802    0.8399    3.2903 N   0  0  0  0  0  0  0  0  0  0  0  0
    0.6062   -4.2907   -0.8937 C   0  0  0  0  0  0  0  0  0  0  0  0
    1.1558   -4.3022   -1.8561 H   0  0  0  0  0  0  0  0  0  0  0  0
    0.1546   -5.2863   -0.7122 H   0  0  0  0  0  0  0  0  0  0  0  0
    1.3077   -4.0390   -0.0761 H   0  0  0  0  0  0  0  0  0  0  0  0
   -0.4541   -2.1490   -0.1158 C   0  0  1  0  0  3  0  0  0  0  0  0
   -1.4672   -3.2127   -1.8299 C   0  0  0  0  0  0  0  0  0  0  0  0
   -2.1702   -2.0154   -1.5515 C   0  0  0  0  0  0  0  0  0  0  0  0
   -3.2871   -1.6444   -2.3150 C   0  0  0  0  0  0  0  0  0  0  0  0
   -3.8257   -0.7089   -2.1153 H   0  0  0  0  0  0  0  0  0  0  0  0
   -3.6791   -2.5129   -3.3451 C   0  0  0  0  0  0  0  0  0  0  0  0
   -4.5516   -2.2522   -3.9623 H   0  0  0  0  0  0  0  0  0  0  0  0
   -2.9780   -3.7096   -3.6129 C   0  0  0  0  0  0  0  0  0  0  0  0
   -3.3151   -4.3609   -4.4328 H   0  0  0  0  0  0  0  0  0  0  0  0
   -1.8553   -4.0820   -2.8580 C   0  0  0  0  0  0  0  0  0  0  0  0
   -1.3019   -5.0079   -3.0680 H   0  0  0  0  0  0  0  0  0  0  0  0
    0.6864    2.9106   -3.2551 C   0  0  0  0  0  0  0  0  0  0  0  0
    1.3567    2.0567   -3.4684 H   0  0  0  0  0  0  0  0  0  0  0  0
    1.2681    3.7147   -2.7613 H   0  0  0  0  0  0  0  0  0  0  0  0
    0.2476    3.2941   -4.1975 H   0  0  0  0  0  0  0  0  0  0  0  0
   -0.4190    1.1795   -1.8074 C   0  0  1  0  0  3  0  0  0  0  0  0
   -1.3983    3.2122   -1.8760 C   0  0  0  0  0  0  0  0  0  0  0  0
   -2.1241    2.3815   -0.9881 C   0  0  0  0  0  0  0  0  0  0  0  0
   -3.2405    2.8732   -0.2953 C   0  0  0  0  0  0  0  0  0  0  0  0
   -3.7968    2.2393    0.4074 H   0  0  0  0  0  0  0  0  0  0  0  0
   -3.6085    4.2064   -0.5324 C   0  0  0  0  0  0  0  0  0  0  0  0
   -4.4799    4.6231   -0.0060 H   0  0  0  0  0  0  0  0  0  0  0  0
   -2.8843    5.0279   -1.4247 C   0  0  0  0  0  0  0  0  0  0  0  0
   -3.2027    6.0695   -1.5788 H   0  0  0  0  0  0  0  0  0  0  0  0
   -1.7619    4.5443   -2.1142 C   0  0  0  0  0  0  0  0  0  0  0  0
   -1.1903    5.1825   -2.8022 H   0  0  0  0  0  0  0  0  0  0  0  0
    0.6610    1.3573    4.1552 C   0  0  0  0  0  0  0  0  0  0  0  0
    1.3528    1.9497    3.5270 H   0  0  0  0  0  0  0  0  0  0  0  0
    1.2187    0.5203    4.6211 H   0  0  0  0  0  0  0  0  0  0  0  0
    0.2231    1.9981    4.9461 H   0  0  0  0  0  0  0  0  0  0  0  0
   -0.4253    0.9815    1.9205 C   0  0  1  0  0  3  0  0  0  0  0  0
   -1.4362    0.0392    3.7054 C   0  0  0  0  0  0  0  0  0  0  0  0
   -2.1538   -0.3064    2.5345 C   0  0  0  0  0  0  0  0  0  0  0  0
   -3.2815   -1.1381    2.6026 C   0  0  0  0  0  0  0  0  0  0  0  0
   -3.8316   -1.4236    1.6965 H   0  0  0  0  0  0  0  0  0  0  0  0
   -3.6693   -1.5931    3.8721 C   0  0  0  0  0  0  0  0  0  0  0  0
   -4.5500   -2.2462    3.9609 H   0  0  0  0  0  0  0  0  0  0  0  0
   -2.9533   -1.2389    5.0371 C   0  0  0  0  0  0  0  0  0  0  0  0
   -3.2873   -1.6210    6.0131 H   0  0  0  0  0  0  0  0  0  0  0  0
   -1.8196   -0.4145    4.9745 C   0  0  0  0  0  0  0  0  0  0  0  0
   -1.2544   -0.1438    5.8772 H   0  0  0  0  0  0  0  0  0  0  0  0
  1 10  1  0  0  0  0
  2  1  1  0  0  0  0
  6 16  1  0  0  0  0
  6  1  1  0  0  0  0
  7 12  1  0  0  0  0
  7 16  1  0  0  0  0
  8  1  1  0  0  0  0
  9 32  1  0  0  0  0
  9 31  1  0  0  0  0
 10 46  1  0  0  0  0
 10 48  1  0  0  0  0
 11 47  1  0  0  0  0
 11 42  1  0  0  0  0
 12 14  1  0  0  0  0
 12 15  1  0  0  0  0
 13 12  1  0  0  0  0
 16  3  1  6  0  0  0
 17 18  1  0  0  0  0
 17  7  1  0  0  0  0
 18  6  1  0  0  0  0
 19 20  1  0  0  0  0
 19 18  2  0  0  0  0
 21 19  1  0  0  0  0
 22 21  1  0  0  0  0
 23 21  2  0  0  0  0
 23 25  1  0  0  0  0
 24 23  1  0  0  0  0
 25 17  2  0  0  0  0
 26 25  1  0  0  0  0
 27 29  1  0  0  0  0
 27  9  1  0  0  0  0
 28 27  1  0  0  0  0
 30 27  1  0  0  0  0
 31  4  1  1  0  0  0
 31  8  1  0  0  0  0
 32 33  1  0  0  0  0
 33  8  1  0  0  0  0
 33 34  2  0  0  0  0
 34 35  1  0  0  0  0
 36 34  1  0  0  0  0
 36 37  1  0  0  0  0
 38 36  2  0  0  0  0
 39 38  1  0  0  0  0
 40 32  2  0  0  0  0
 40 38  1  0  0  0  0
 41 40  1  0  0  0  0
 42 44  1  0  0  0  0
 42 45  1  0  0  0  0
 43 42  1  0  0  0  0
 46  5  1  6  0  0  0
 46 11  1  0  0  0  0
 47 55  1  0  0  0  0
 48 49  1  0  0  0  0
 48 47  2  0  0  0  0
 49 51  2  0  0  0  0
 50 49  1  0  0  0  0
 51 52  1  0  0  0  0
 51 53  1  0  0  0  0
 53 54  1  0  0  0  0
 55 53  2  0  0  0  0
 55 56  1  0  0  0  0
M  END
