1,2,3
q = -2.0, confidence = 0.916

 47 48  0  0  0  0  0  0  0  0999 V2000
   -2.0367   -0.3197    0.2971 S   0  0  0  0  0  1  0  0  0  0  0  0
    0.3978   -1.4638   -1.0651 S   0  0  0  0  0  0  0  0  0  0  0  0
    2.2263    0.2302    0.6857 S   0  0  0  0  0  1  0  0  0  0  0  0
   -4.9319   -2.0328    0.4850 Si  0  0  0  0  0  0  0  0  0  0  0  0
    5.4835   -0.5162    1.1297 Si  0  0  0  0  0  0  0  0  0  0  0  0
   -2.0787   -2.0260   -0.1721 C   0  0  0  0  0  0  0  0  0  0  0  0
   -3.2685   -2.8028   -0.0401 C   0  0  0  0  0  0  0  0  0  0  0  0
   -3.1874   -4.1843   -0.3110 C   0  0  0  0  0  0  0  0  0  0  0  0
   -4.0872   -4.8077   -0.1926 H   0  0  0  0  0  0  0  0  0  0  0  0
   -1.9932   -4.8010   -0.7221 C   0  0  0  0  0  0  0  0  0  0  0  0
   -1.9592   -5.8853   -0.9047 H   0  0  0  0  0  0  0  0  0  0  0  0
   -0.8433   -4.0244   -0.9186 C   0  0  0  0  0  0  0  0  0  0  0  0
    0.0864   -4.4931   -1.2673 H   0  0  0  0  0  0  0  0  0  0  0  0
   -0.8946   -2.6528   -0.6413 C   0  0  0  0  0  0  0  0  0  0  0  0
   -4.8282   -1.2862    2.2220 C   0  0  0  0  0  0  0  0  0  0  0  0
   -4.0143   -0.5373    2.2814 H   0  0  0  0  0  0  0  0  0  0  0  0
   -4.6200   -2.0768    2.9717 H   0  0  0  0  0  0  0  0  0  0  0  0
   -5.7870   -0.7969    2.4931 H   0  0  0  0  0  0  0  0  0  0  0  0
   -5.4436   -0.7259   -0.7901 C   0  0  0  0  0  0  0  0  0  0  0  0
   -6.3594   -0.1896   -0.4656 H   0  0  0  0  0  0  0  0  0  0  0  0
   -5.6499   -1.2006   -1.7711 H   0  0  0  0  0  0  0  0  0  0  0  0
   -4.6303    0.0134   -0.9304 H   0  0  0  0  0  0  0  0  0  0  0  0
   -6.2493   -3.3970    0.5001 C   0  0  0  0  0  0  0  0  0  0  0  0
   -6.0132   -4.1927    1.2361 H   0  0  0  0  0  0  0  0  0  0  0  0
   -6.3683   -3.8706   -0.4959 H   0  0  0  0  0  0  0  0  0  0  0  0
   -7.2302   -2.9616    0.7831 H   0  0  0  0  0  0  0  0  0  0  0  0
    2.8802   -1.2690    0.0117 C   0  0  0  0  0  0  0  0  0  0  0  0
    4.2535   -1.6238    0.1807 C   0  0  0  0  0  0  0  0  0  0  0  0
    4.6979   -2.8325   -0.3917 C   0  0  0  0  0  0  0  0  0  0  0  0
    5.7492   -3.1321   -0.2600 H   0  0  0  0  0  0  0  0  0  0  0  0
    3.8545   -3.6647   -1.1497 C   0  0  0  0  0  0  0  0  0  0  0  0
    4.2433   -4.5873   -1.6054 H   0  0  0  0  0  0  0  0  0  0  0  0
    2.5186   -3.2957   -1.3462 C   0  0  0  0  0  0  0  0  0  0  0  0
    1.8665   -3.8994   -1.9931 H   0  0  0  0  0  0  0  0  0  0  0  0
    2.0325   -2.1325   -0.7287 C   0  0  0  0  0  0  0  0  0  0  0  0
    4.9312   -0.3043    2.9273 C   0  0  0  0  0  0  0  0  0  0  0  0
    3.9051    0.1101    2.9758 H   0  0  0  0  0  0  0  0  0  0  0  0
    5.6178    0.3783    3.4701 H   0  0  0  0  0  0  0  0  0  0  0  0
    4.9313   -1.2823    3.4506 H   0  0  0  0  0  0  0  0  0  0  0  0
    5.6391    1.1597    0.2589 C   0  0  0  0  0  0  0  0  0  0  0  0
    4.6459    1.6431    0.1736 H   0  0  0  0  0  0  0  0  0  0  0  0
    6.0506    1.0296   -0.7631 H   0  0  0  0  0  0  0  0  0  0  0  0
    6.3175    1.8336    0.8222 H   0  0  0  0  0  0  0  0  0  0  0  0
    7.1830   -1.3583    1.1165 C   0  0  0  0  0  0  0  0  0  0  0  0
    7.9122   -0.7271    1.6656 H   0  0  0  0  0  0  0  0  0  0  0  0
    7.5708   -1.4973    0.0865 H   0  0  0  0  0  0  0  0  0  0  0  0
    7.1589   -2.3493    1.6146 H   0  0  0  0  0  0  0  0  0  0  0  0
  2 35  1  0  0  0  0
  2 14  1  0  0  0  0
  4 23  1  0  0  0  0
  4 15  1  0  0  0  0
  5 36  1  0  0  0  0
  6  7  1  0  0  0  0
  6  1  1  0  0  0  0
  7  4  1  0  0  0  0
  8  9  1  0  0  0  0
  8  7  2  0  0  0  0
 10  8  1  0  0  0  0
 11 10  1  0  0  0  0
 12 10  2  0  0  0  0
 12 14  1  0  0  0  0
 13 12  1  0  0  0  0
 14  6  2  0  0  0  0
 15 16  1  0  0  0  0
 15 18  1  0  0  0  0
 15 17  1  0  0  0  0
 19 20  1  0  0  0  0
 19  4  1  0  0  0  0
 21 19  1  0  0  0  0
 22 19  1  0  0  0  0
 23 26  1  0  0  0  0
 23 24  1  0  0  0  0
 25 23  1  0  0  0  0
 27 28  1  0  0  0  0
 27  3  1  0  0  0  0
 28  5  1  0  0  0  0
 29 30  1  0  0  0  0
 29 28  2  0  0  0  0
 31 29  1  0  0  0  0
 32 31  1  0  0  0  0
 33 31  2  0  0  0  0
 33 35  1  0  0  0  0
 34 33  1  0  0  0  0
 35 27  2  0  0  0  0
 36 37  1  0  0  0  0
 36 39  1  0  0  0  0
 36 38  1  0  0  0  0
 40 43  1  0  0  0  0
 40  5  1  0  0  0  0
 41 40  1  0  0  0  0
 42 40  1  0  0  0  0
 44  5  1  0  0  0  0
 44 47  1  0  0  0  0
 44 45  1  0  0  0  0
 46 44  1  0  0  0  0
M  END
