1,2,3
q = -1.0

 65 67  0  0  1  0  0  0  0  0999 V2000
    2.3872    0.7312   -0.9096 S   0  0  0  0  0  1  0  0  0  0  0  0
   -1.0299    1.5073    0.9541 S   0  0  0  0  0  1  0  0  0  0  0  0
    0.2050   -2.2550    0.3797 S   0  0  0  0  0  1  0  0  0  0  0  0
    1.7405    0.0693    2.4201 B   0  0  1  0  0  0  0  0  0  0  0  0
    2.3192    0.0954    3.5065 H   0  0  0  0  0  0  0  0  0  0  0  0
    2.6881   -0.6924    1.4466 N   0  0  0  0  0  0  0  0  0  0  0  0
    3.7576   -1.5994   -0.2648 N   0  0  0  0  0  0  0  0  0  0  0  0
    1.5312    1.5499    1.9990 N   0  0  0  0  0  0  0  0  0  0  0  0
    0.9192    3.4812    1.1084 N   0  0  0  0  0  0  0  0  0  0  0  0
    0.4030   -0.6851    2.6522 N   0  0  0  0  0  0  0  0  0  0  0  0
   -1.5048   -1.7993    2.5200 N   0  0  0  0  0  0  0  0  0  0  0  0
    2.9458   -0.5430    0.1093 C   0  0  2  0  0  3  0  0  0  0  0  0
    3.3335   -1.8251    1.9017 C   0  0  0  0  0  0  0  0  0  0  0  0
    3.2597   -2.1415    2.9456 H   0  0  0  0  0  0  0  0  0  0  0  0
    3.9935   -2.3945    0.8484 C   0  0  0  0  0  0  0  0  0  0  0  0
    4.6112   -3.2918    0.8148 H   0  0  0  0  0  0  0  0  0  0  0  0
    4.2655   -1.9023   -1.6478 C   0  0  0  0  0  0  0  0  0  0  0  0
    5.1090   -3.1859   -1.6063 C   0  0  0  0  0  0  0  0  0  0  0  0
    4.5153   -4.0662   -1.2899 H   0  0  0  0  0  0  0  0  0  0  0  0
    5.9945   -3.0861   -0.9475 H   0  0  0  0  0  0  0  0  0  0  0  0
    5.4784   -3.3862   -2.6299 H   0  0  0  0  0  0  0  0  0  0  0  0
    5.1545   -0.7407   -2.1247 C   0  0  0  0  0  0  0  0  0  0  0  0
    4.5815    0.2047   -2.1601 H   0  0  0  0  0  0  0  0  0  0  0  0
    5.5370   -0.9627   -3.1405 H   0  0  0  0  0  0  0  0  0  0  0  0
    6.0214   -0.6104   -1.4461 H   0  0  0  0  0  0  0  0  0  0  0  0
    3.0635   -2.1310   -2.5810 C   0  0  0  0  0  0  0  0  0  0  0  0
    2.4237   -2.9490   -2.1949 H   0  0  0  0  0  0  0  0  0  0  0  0
    3.4271   -2.4111   -3.5891 H   0  0  0  0  0  0  0  0  0  0  0  0
    2.4500   -1.2157   -2.6683 H   0  0  0  0  0  0  0  0  0  0  0  0
    0.4983    2.1846    1.3563 C   0  0  2  0  0  3  0  0  0  0  0  0
    2.5761    2.4411    2.1576 C   0  0  0  0  0  0  0  0  0  0  0  0
    3.5082    2.1452    2.6465 H   0  0  0  0  0  0  0  0  0  0  0  0
    2.2079    3.6353    1.6048 C   0  0  0  0  0  0  0  0  0  0  0  0
    2.7602    4.5724    1.5366 H   0  0  0  0  0  0  0  0  0  0  0  0
    0.1632    4.5430    0.3602 C   0  0  0  0  0  0  0  0  0  0  0  0
   -0.0926    4.0520   -1.0761 C   0  0  0  0  0  0  0  0  0  0  0  0
   -0.6080    4.8448   -1.6531 H   0  0  0  0  0  0  0  0  0  0  0  0
   -0.7237    3.1445   -1.0823 H   0  0  0  0  0  0  0  0  0  0  0  0
    0.8656    3.8147   -1.5794 H   0  0  0  0  0  0  0  0  0  0  0  0
    1.0135    5.8215    0.2997 C   0  0  0  0  0  0  0  0  0  0  0  0
    1.2371    6.2250    1.3074 H   0  0  0  0  0  0  0  0  0  0  0  0
    0.4361    6.5920   -0.2457 H   0  0  0  0  0  0  0  0  0  0  0  0
    1.9625    5.6670   -0.2507 H   0  0  0  0  0  0  0  0  0  0  0  0
   -1.1458    4.8559    1.1058 C   0  0  0  0  0  0  0  0  0  0  0  0
   -0.9312    5.2327    2.1262 H   0  0  0  0  0  0  0  0  0  0  0  0
   -1.7789    3.9523    1.1839 H   0  0  0  0  0  0  0  0  0  0  0  0
   -1.7054    5.6379    0.5555 H   0  0  0  0  0  0  0  0  0  0  0  0
   -0.3062   -1.5622    1.8705 C   0  0  2  0  0  3  0  0  0  0  0  0
   -0.3416   -0.3874    3.7778 C   0  0  0  0  0  0  0  0  0  0  0  0
    0.0286    0.3037    4.5397 H   0  0  0  0  0  0  0  0  0  0  0  0
   -1.5239   -1.0690    3.7008 C   0  0  0  0  0  0  0  0  0  0  0  0
   -2.3650   -1.0874    4.3936 H   0  0  0  0  0  0  0  0  0  0  0  0
   -2.6331   -2.6727    2.0401 C   0  0  0  0  0  0  0  0  0  0  0  0
   -3.7865   -2.6051    3.0529 C   0  0  0  0  0  0  0  0  0  0  0  0
   -4.1951   -1.5796    3.1480 H   0  0  0  0  0  0  0  0  0  0  0  0
   -3.4937   -2.9783    4.0547 H   0  0  0  0  0  0  0  0  0  0  0  0
   -4.6036   -3.2532    2.6833 H   0  0  0  0  0  0  0  0  0  0  0  0
   -2.1324   -4.1246    1.9489 C   0  0  0  0  0  0  0  0  0  0  0  0
   -1.2917   -4.2040    1.2341 H   0  0  0  0  0  0  0  0  0  0  0  0
   -2.9568   -4.7773    1.5998 H   0  0  0  0  0  0  0  0  0  0  0  0
   -1.7964   -4.4861    2.9418 H   0  0  0  0  0  0  0  0  0  0  0  0
   -3.1401   -2.1522    0.6854 C   0  0  0  0  0  0  0  0  0  0  0  0
   -3.4552   -1.0931    0.7586 H   0  0  0  0  0  0  0  0  0  0  0  0
   -4.0160   -2.7486    0.3647 H   0  0  0  0  0  0  0  0  0  0  0  0
   -2.3614   -2.2308   -0.0938 H   0  0  0  0  0  0  0  0  0  0  0  0
  4 10  1  0  0  0  0
  4  5  1  1  0  0  0
  6 13  1  0  0  0  0
  6  4  1  0  0  0  0
  7 12  1  0  0  0  0
  7 15  1  0  0  0  0
  8 31  1  0  0  0  0
  8  4  1  0  0  0  0
  9 30  1  0  0  0  0
  9 33  1  0  0  0  0
 10 49  1  0  0  0  0
 11 51  1  0  0  0  0
 12  1  1  1  0  0  0
 12  6  1  0  0  0  0
 13 14  1  0  0  0  0
 15 13  2  0  0  0  0
 16 15  1  0  0  0  0
 17 18  1  0  0  0  0
 17  7  1  0  0  0  0
 18 19  1  0  0  0  0
 18 20  1  0  0  0  0
 21 18  1  0  0  0  0
 22 17  1  0  0  0  0
 22 25  1  0  0  0  0
 23 22  1  0  0  0  0
 24 22  1  0  0  0  0
 26 27  1  0  0  0  0
 26 17  1  0  0  0  0
 28 26  1  0  0  0  0
 29 26  1  0  0  0  0
 30  2  1  1  0  0  0
 30  8  1  0  0  0  0
 31 32  1  0  0  0  0
 33 31  2  0  0  0  0
 34 33  1  0  0  0  0
 35 44  1  0  0  0  0
 35  9  1  0  0  0  0
 36 35  1  0  0  0  0
 37 36  1  0  0  0  0
 38 36  1  0  0  0  0
 39 36  1  0  0  0  0
 40 35  1  0  0  0  0
 40 41  1  0  0  0  0
 42 40  1  0  0  0  0
 43 40  1  0  0  0  0
 44 46  1  0  0  0  0
 44 45  1  0  0  0  0
 47 44  1  0  0  0  0
 48  3  1  1  0  0  0
 48 11  1  0  0  0  0
 48 10  1  0  0  0  0
 49 50  1  0  0  0  0
 51 49  2  0  0  0  0
 51 52  1  0  0  0  0
 53 11  1  0  0  0  0
 53 54  1  0  0  0  0
 54 55  1  0  0  0  0
 54 56  1  0  0  0  0
 57 54  1  0  0  0  0
 58 53  1  0  0  0  0
 58 61  1  0  0  0  0
 59 58  1  0  0  0  0
 60 58  1  0  0  0  0
 62 63  1  0  0  0  0
 62 53  1  0  0  0  0
 64 62  1  0  0  0  0
 65 62  1  0  0  0  0
M  END
