1,2,3
q = 0.0, confidence = 1.0

 29 28  0  0  0  0  0  0  0  0999 V2000
   -0.3201   -1.4780   -1.2191 S   0  0  0  0  0  0  0  0  0  0  0  0
   -0.3191    1.7949   -0.6700 S   0  0  0  0  0  0  0  0  0  0  0  0
   -0.3197   -0.3178    1.8896 S   0  0  0  0  0  0  0  0  0  0  0  0
   -2.0899   -1.2789   -0.7377 C   0  0  0  0  0  0  0  0  0  0  0  0
   -2.0889    1.2788   -0.7392 C   0  0  0  0  0  0  0  0  0  0  0  0
   -4.0758    0.0011    0.0002 C   0  0  0  0  0  0  0  0  0  0  0  0
   -0.3644    3.0534    0.6511 C   0  0  0  0  0  0  0  0  0  0  0  0
   -0.3656   -2.0917    2.3170 C   0  0  0  0  0  0  0  0  0  0  0  0
   -2.5270    0.0005    0.0001 C   0  0  0  0  0  0  0  0  0  0  0  0
   -2.0892    0.0012    1.4770 C   0  0  0  0  0  0  0  0  0  0  0  0
   -0.3649   -0.9630   -2.9696 C   0  0  0  0  0  0  0  0  0  0  0  0
   -4.4732    0.1148   -1.0283 H   0  0  0  0  0  0  0  0  0  0  0  0
   -4.4734   -0.9463    0.4161 H   0  0  0  0  0  0  0  0  0  0  0  0
   -4.4728    0.8351    0.6128 H   0  0  0  0  0  0  0  0  0  0  0  0
   -2.6579   -1.3850   -1.6836 H   0  0  0  0  0  0  0  0  0  0  0  0
   -2.3291   -2.1697   -0.1229 H   0  0  0  0  0  0  0  0  0  0  0  0
   -2.6570    2.1513   -0.3591 H   0  0  0  0  0  0  0  0  0  0  0  0
   -2.3272    1.1912   -1.8182 H   0  0  0  0  0  0  0  0  0  0  0  0
   -2.6578   -0.7642    2.0422 H   0  0  0  0  0  0  0  0  0  0  0  0
   -2.3271    0.9793    1.9409 H   0  0  0  0  0  0  0  0  0  0  0  0
   -0.6242    2.6215    1.6359 H   0  0  0  0  0  0  0  0  0  0  0  0
    0.6516    3.4870    0.7024 H   0  0  0  0  0  0  0  0  0  0  0  0
   -1.0812    3.8443    0.3598 H   0  0  0  0  0  0  0  0  0  0  0  0
   -0.6249   -2.7275    1.4497 H   0  0  0  0  0  0  0  0  0  0  0  0
    0.6501   -2.3534    2.6671 H   0  0  0  0  0  0  0  0  0  0  0  0
   -1.0829   -2.2356    3.1470 H   0  0  0  0  0  0  0  0  0  0  0  0
   -0.6246    0.1059   -3.0878 H   0  0  0  0  0  0  0  0  0  0  0  0
    0.6511   -1.1354   -3.3705 H   0  0  0  0  0  0  0  0  0  0  0  0
   -1.0817   -1.6105   -3.5091 H   0  0  0  0  0  0  0  0  0  0  0  0
  1  4  1  0  0  0  0
  2  7  1  0  0  0  0
  3  8  1  0  0  0  0
  4 16  1  0  0  0  0
  4  9  1  0  0  0  0
  5  2  1  0  0  0  0
  5 17  1  0  0  0  0
  5  9  1  0  0  0  0
  6 13  1  0  0  0  0
  6 14  1  0  0  0  0
  7 22  1  0  0  0  0
  7 21  1  0  0  0  0
  8 25  1  0  0  0  0
  8 26  1  0  0  0  0
  9  6  1  0  0  0  0
  9 10  1  0  0  0  0
 10  3  1  0  0  0  0
 10 20  1  0  0  0  0
 10 19  1  0  0  0  0
 11  1  1  0  0  0  0
 12  6  1  0  0  0  0
 15  4  1  0  0  0  0
 18  5  1  0  0  0  0
 23  7  1  0  0  0  0
 24  8  1  0  0  0  0
 27 11  1  0  0  0  0
 28 11  1  0  0  0  0
 29 11  1  0  0  0  0
M  END
