8,9,10
q = -1.0

 48 51  0  0  1  0  0  0  0  0999 V2000
    1.7515    0.1536    0.0689 B   0  0  1  0  0  0  0  0  0  0  0  0
   -0.1392    2.8083   -1.7716 N   0  0  0  0  0  0  0  0  0  0  0  0
    1.1470    1.3926   -0.6770 N   0  0  0  0  0  0  0  0  0  0  0  0
   -0.0277    0.4141    3.3647 N   0  0  0  0  0  0  0  0  0  0  0  0
    1.2408    0.2400    1.5649 N   0  0  0  0  0  0  0  0  0  0  0  0
    0.2022   -2.9630   -1.3418 N   0  0  0  0  0  0  0  0  0  0  0  0
    1.2754   -1.1800   -0.6173 N   0  0  0  0  0  0  0  0  0  0  0  0
   -0.9615    0.2288   -2.1178 S   0  0  0  0  0  1  0  0  0  0  0  0
   -1.2247    1.5733    1.2172 S   0  0  0  0  0  1  0  0  0  0  0  0
   -0.9689   -1.9091    0.8875 S   0  0  0  0  0  1  0  0  0  0  0  0
    0.0712    1.4719   -1.5232 C   0  0  1  0  0  3  0  0  0  0  0  0
   -1.2241    3.3446   -2.5746 C   0  0  0  0  0  0  0  0  0  0  0  0
   -1.6912    2.4975   -3.1111 H   0  0  0  0  0  0  0  0  0  0  0  0
   -0.8317    4.0900   -3.2928 H   0  0  0  0  0  0  0  0  0  0  0  0
   -1.9900    3.8106   -1.9240 H   0  0  0  0  0  0  0  0  0  0  0  0
    0.7626    3.5656   -1.0461 C   0  0  0  0  0  0  0  0  0  0  0  0
    0.7563    4.6587   -1.0687 H   0  0  0  0  0  0  0  0  0  0  0  0
    1.5520    2.6832   -0.3595 C   0  0  0  0  0  0  0  0  0  0  0  0
    2.3463    2.8730    0.3654 H   0  0  0  0  0  0  0  0  0  0  0  0
    0.0305    0.7079    2.0241 C   0  0  2  0  0  3  0  0  0  0  0  0
   -1.1781    0.6504    4.2198 C   0  0  0  0  0  0  0  0  0  0  0  0
   -1.8611    1.3327    3.6797 H   0  0  0  0  0  0  0  0  0  0  0  0
   -0.8532    1.1029    5.1760 H   0  0  0  0  0  0  0  0  0  0  0  0
   -1.7109   -0.3018    4.4137 H   0  0  0  0  0  0  0  0  0  0  0  0
    1.1313   -0.2329    3.7509 C   0  0  0  0  0  0  0  0  0  0  0  0
    1.3052   -0.5525    4.7821 H   0  0  0  0  0  0  0  0  0  0  0  0
    1.9160   -0.3318    2.6338 C   0  0  0  0  0  0  0  0  0  0  0  0
    2.9175   -0.7496    2.5234 H   0  0  0  0  0  0  0  0  0  0  0  0
    0.2130   -2.0029   -0.3589 C   0  0  1  0  0  3  0  0  0  0  0  0
   -0.7951   -4.0104   -1.4731 C   0  0  0  0  0  0  0  0  0  0  0  0
   -1.3922   -4.0191   -0.5418 H   0  0  0  0  0  0  0  0  0  0  0  0
   -0.3001   -4.9889   -1.6241 H   0  0  0  0  0  0  0  0  0  0  0  0
   -1.4725   -3.7928   -2.3220 H   0  0  0  0  0  0  0  0  0  0  0  0
    1.2411   -2.7327   -2.2272 C   0  0  0  0  0  0  0  0  0  0  0  0
    1.4166   -3.3713   -3.0971 H   0  0  0  0  0  0  0  0  0  0  0  0
    1.9059   -1.6271   -1.7727 C   0  0  0  0  0  0  0  0  0  0  0  0
    2.7805   -1.1151   -2.1793 H   0  0  0  0  0  0  0  0  0  0  0  0
    4.0673   -1.0457    0.4461 C   0  0  0  0  0  0  0  0  0  0  0  0
    3.4824   -1.8943    0.8366 H   0  0  0  0  0  0  0  0  0  0  0  0
    5.4610   -1.1791    0.3751 C   0  0  0  0  0  0  0  0  0  0  0  0
    5.9432   -2.0970    0.7460 H   0  0  0  0  0  0  0  0  0  0  0  0
    6.2367   -0.1529   -0.1877 C   0  0  0  0  0  0  0  0  0  0  0  0
    7.3312   -0.2513   -0.2510 H   0  0  0  0  0  0  0  0  0  0  0  0
    5.5944    0.9855   -0.6924 C   0  0  0  0  0  0  0  0  0  0  0  0
    6.1827    1.7856   -1.1681 H   0  0  0  0  0  0  0  0  0  0  0  0
    4.1962    1.1092   -0.6058 C   0  0  0  0  0  0  0  0  0  0  0  0
    3.7319    2.0034   -1.0464 H   0  0  0  0  0  0  0  0  0  0  0  0
    3.3898    0.1155   -0.0087 C   0  0  0  0  0  0  0  0  0  0  0  0
  1 48  1  6  0  0  0
  1  5  1  0  0  0  0
  2 11  1  0  0  0  0
  2 16  1  0  0  0  0
  3 18  1  0  0  0  0
  3  1  1  0  0  0  0
  4 25  1  0  0  0  0
  4 21  1  0  0  0  0
  5 20  1  0  0  0  0
  5 27  1  0  0  0  0
  6 29  1  0  0  0  0
  7 29  1  0  0  0  0
  7  1  1  0  0  0  0
 11  8  1  1  0  0  0
 11  3  1  0  0  0  0
 12 15  1  0  0  0  0
 12  2  1  0  0  0  0
 13 12  1  0  0  0  0
 14 12  1  0  0  0  0
 16 18  2  0  0  0  0
 17 16  1  0  0  0  0
 18 19  1  0  0  0  0
 20  9  1  1  0  0  0
 20  4  1  0  0  0  0
 21 24  1  0  0  0  0
 21 23  1  0  0  0  0
 22 21  1  0  0  0  0
 25 26  1  0  0  0  0
 27 25  2  0  0  0  0
 28 27  1  0  0  0  0
 29 10  1  6  0  0  0
 30  6  1  0  0  0  0
 30 31  1  0  0  0  0
 32 30  1  0  0  0  0
 33 30  1  0  0  0  0
 34 36  2  0  0  0  0
 34  6  1  0  0  0  0
 35 34  1  0  0  0  0
 36  7  1  0  0  0  0
 37 36  1  0  0  0  0
 38 39  1  0  0  0  0
 40 38  1  0  0  0  0
 40 41  1  0  0  0  0
 42 40  2  0  0  0  0
 43 42  1  0  0  0  0
 44 46  2  0  0  0  0
 44 42  1  0  0  0  0
 45 44  1  0  0  0  0
 46 48  1  0  0  0  0
 47 46  1  0  0  0  0
 48 38  2  0  0  0  0
M  END
