1,3,4
q = -2.0, confidence = 0.832

 30 31  0  0  0  0  0  0  0  0999 V2000
    1.7254   -0.1070   -1.4474 S   0  0  0  0  0  1  0  0  0  0  0  0
    0.7061   -1.5102    1.3150 S   0  0  0  0  0  0  0  0  0  0  0  0
   -1.3012   -0.8439   -1.3918 S   0  0  0  0  0  0  0  0  0  0  0  0
   -2.0268    0.2098    1.6421 S   0  0  0  0  0  1  0  0  0  0  0  0
    2.6839   -1.3431   -0.6341 C   0  0  0  0  0  0  0  0  0  0  0  0
    3.9212   -1.7477   -1.1961 C   0  0  0  0  0  0  0  0  0  0  0  0
    4.6912   -2.7481   -0.5937 C   0  0  0  0  0  0  0  0  0  0  0  0
    4.2599   -3.3735    0.5912 C   0  0  0  0  0  0  0  0  0  0  0  0
    3.0417   -2.9863    1.1647 C   0  0  0  0  0  0  0  0  0  0  0  0
    2.2579   -1.9921    0.5514 C   0  0  0  0  0  0  0  0  0  0  0  0
   -0.4546   -2.7254    0.5369 C   0  0  0  0  0  0  0  0  0  0  0  0
   -0.6623   -2.5226   -0.9506 C   0  0  0  0  0  0  0  0  0  0  0  0
   -2.9753   -0.9327   -0.7399 C   0  0  0  0  0  0  0  0  0  0  0  0
   -3.9819   -1.4889   -1.5494 C   0  0  0  0  0  0  0  0  0  0  0  0
   -5.3024   -1.5527   -1.0859 C   0  0  0  0  0  0  0  0  0  0  0  0
   -5.6080   -1.0365    0.1870 C   0  0  0  0  0  0  0  0  0  0  0  0
   -4.6107   -0.4702    0.9876 C   0  0  0  0  0  0  0  0  0  0  0  0
   -3.2651   -0.4088    0.5459 C   0  0  0  0  0  0  0  0  0  0  0  0
    4.2674   -1.2542   -2.1168 H   0  0  0  0  0  0  0  0  0  0  0  0
    5.6507   -3.0377   -1.0492 H   0  0  0  0  0  0  0  0  0  0  0  0
    4.8744   -4.1495    1.0704 H   0  0  0  0  0  0  0  0  0  0  0  0
    2.6870   -3.4492    2.0986 H   0  0  0  0  0  0  0  0  0  0  0  0
   -1.3967   -2.5974    1.1083 H   0  0  0  0  0  0  0  0  0  0  0  0
   -0.0405   -3.7330    0.7463 H   0  0  0  0  0  0  0  0  0  0  0  0
    0.2836   -2.6166   -1.5210 H   0  0  0  0  0  0  0  0  0  0  0  0
   -1.3969   -3.2516   -1.3493 H   0  0  0  0  0  0  0  0  0  0  0  0
   -3.7200   -1.8628   -2.5516 H   0  0  0  0  0  0  0  0  0  0  0  0
   -6.0905   -1.9847   -1.7198 H   0  0  0  0  0  0  0  0  0  0  0  0
   -6.6448   -1.0643    0.5563 H   0  0  0  0  0  0  0  0  0  0  0  0
   -4.8565   -0.0592    1.9783 H   0  0  0  0  0  0  0  0  0  0  0  0
  1  5  1  0  0  0  0
  3 12  1  0  0  0  0
  3 13  1  0  0  0  0
  5 10  1  0  0  0  0
  6  5  2  0  0  0  0
  6  7  1  0  0  0  0
  7  8  2  0  0  0  0
  8 21  1  0  0  0  0
  8  9  1  0  0  0  0
  9 22  1  0  0  0  0
 10  9  2  0  0  0  0
 10  2  1  0  0  0  0
 11 24  1  0  0  0  0
 11 23  1  0  0  0  0
 11  2  1  0  0  0  0
 12 11  1  0  0  0  0
 13 18  1  0  0  0  0
 14 15  1  0  0  0  0
 14 13  2  0  0  0  0
 15 16  2  0  0  0  0
 16 29  1  0  0  0  0
 16 17  1  0  0  0  0
 17 30  1  0  0  0  0
 18 17  2  0  0  0  0
 18  4  1  0  0  0  0
 19  6  1  0  0  0  0
 20  7  1  0  0  0  0
 25 12  1  0  0  0  0
 26 12  1  0  0  0  0
 27 14  1  0  0  0  0
 28 15  1  0  0  0  0
M  END
