3,4,5
q = -1.0

 65 67  0  0  1  0  0  0  0  0999 V2000
    1.0529    0.1654    1.7241 B   0  0  2  0  0  0  0  0  0  0  0  0
    2.0525    0.2778    3.5597 Br  0  0  0  0  0  0  0  0  0  0  0  0
   -0.3047    1.8918   -0.8497 S   0  0  0  0  0  1  0  0  0  0  0  0
   -1.8457   -0.9699    0.3142 S   0  0  0  0  0  1  0  0  0  0  0  0
    1.1793   -1.0030   -1.4550 S   0  0  0  0  0  1  0  0  0  0  0  0
   -0.1485    1.1308    1.8252 N   0  0  0  0  0  0  0  0  0  0  0  0
   -0.7190    1.9001    0.8366 C   0  0  2  0  0  3  0  0  0  0  0  0
   -1.8059    2.5358    1.3974 N   0  0  0  0  0  0  0  0  0  0  0  0
   -0.9057    1.2605    2.9792 C   0  0  0  0  0  0  0  0  0  0  0  0
   -0.6321    0.7405    3.9000 H   0  0  0  0  0  0  0  0  0  0  0  0
   -1.9215    2.1363    2.7238 C   0  0  0  0  0  0  0  0  0  0  0  0
   -2.6991    2.5110    3.3895 H   0  0  0  0  0  0  0  0  0  0  0  0
   -2.8121    3.3951    0.6800 C   0  0  0  0  0  0  0  0  0  0  0  0
   -2.0836    4.5432   -0.0385 C   0  0  0  0  0  0  0  0  0  0  0  0
   -1.4021    4.1515   -0.8163 H   0  0  0  0  0  0  0  0  0  0  0  0
   -1.4996    5.1494    0.6829 H   0  0  0  0  0  0  0  0  0  0  0  0
   -2.8306    5.2014   -0.5243 H   0  0  0  0  0  0  0  0  0  0  0  0
   -3.6038    2.5070   -0.2965 C   0  0  0  0  0  0  0  0  0  0  0  0
   -4.1447    1.7139    0.2569 H   0  0  0  0  0  0  0  0  0  0  0  0
   -2.9444    2.0170   -1.0368 H   0  0  0  0  0  0  0  0  0  0  0  0
   -4.3459    3.1242   -0.8403 H   0  0  0  0  0  0  0  0  0  0  0  0
   -3.7776    4.0013    1.7105 C   0  0  0  0  0  0  0  0  0  0  0  0
   -4.3850    3.2299    2.2234 H   0  0  0  0  0  0  0  0  0  0  0  0
   -4.4803    4.6653    1.1725 H   0  0  0  0  0  0  0  0  0  0  0  0
   -3.2493    4.6141    2.4684 H   0  0  0  0  0  0  0  0  0  0  0  0
    0.6274   -1.3160    1.5696 N   0  0  0  0  0  0  0  0  0  0  0  0
   -0.5320   -1.8444    1.0547 C   0  0  2  0  0  3  0  0  0  0  0  0
   -0.3886   -3.2147    1.0597 N   0  0  0  0  0  0  0  0  0  0  0  0
    1.5024   -2.3539    1.8463 C   0  0  0  0  0  0  0  0  0  0  0  0
    2.4902   -2.1657    2.2735 H   0  0  0  0  0  0  0  0  0  0  0  0
    0.8761   -3.5294    1.5446 C   0  0  0  0  0  0  0  0  0  0  0  0
    1.2310   -4.5541    1.6548 H   0  0  0  0  0  0  0  0  0  0  0  0
   -1.3606   -4.2230    0.5069 C   0  0  0  0  0  0  0  0  0  0  0  0
   -1.4358   -4.0531   -1.0218 C   0  0  0  0  0  0  0  0  0  0  0  0
   -0.4304   -4.1757   -1.4716 H   0  0  0  0  0  0  0  0  0  0  0  0
   -1.8260   -3.0579   -1.3054 H   0  0  0  0  0  0  0  0  0  0  0  0
   -2.1073   -4.8263   -1.4446 H   0  0  0  0  0  0  0  0  0  0  0  0
   -2.7308   -4.0320    1.1784 C   0  0  0  0  0  0  0  0  0  0  0  0
   -2.6474   -4.1447    2.2781 H   0  0  0  0  0  0  0  0  0  0  0  0
   -3.4326   -4.8014    0.8005 H   0  0  0  0  0  0  0  0  0  0  0  0
   -3.1473   -3.0340    0.9474 H   0  0  0  0  0  0  0  0  0  0  0  0
   -0.8505   -5.6361    0.8308 C   0  0  0  0  0  0  0  0  0  0  0  0
    0.1066   -5.8654    0.3223 H   0  0  0  0  0  0  0  0  0  0  0  0
   -1.5987   -6.3636    0.4633 H   0  0  0  0  0  0  0  0  0  0  0  0
   -0.7328   -5.7978    1.9210 H   0  0  0  0  0  0  0  0  0  0  0  0
    2.0805    0.5928    0.6467 N   0  0  0  0  0  0  0  0  0  0  0  0
    2.2487    0.1074   -0.6295 C   0  0  2  0  0  3  0  0  0  0  0  0
    3.2828    0.8182   -1.2002 N   0  0  0  0  0  0  0  0  0  0  0  0
    2.9821    1.6288    0.8475 C   0  0  0  0  0  0  0  0  0  0  0  0
    3.0356    2.1576    1.8018 H   0  0  0  0  0  0  0  0  0  0  0  0
    3.7317    1.7658   -0.2844 C   0  0  0  0  0  0  0  0  0  0  0  0
    4.5538    2.4501   -0.4950 H   0  0  0  0  0  0  0  0  0  0  0  0
    3.7680    0.7076   -2.6173 C   0  0  0  0  0  0  0  0  0  0  0  0
    4.1337   -0.7563   -2.9154 C   0  0  0  0  0  0  0  0  0  0  0  0
    4.9258   -1.1085   -2.2245 H   0  0  0  0  0  0  0  0  0  0  0  0
    4.5140   -0.8354   -3.9528 H   0  0  0  0  0  0  0  0  0  0  0  0
    3.2523   -1.4170   -2.8149 H   0  0  0  0  0  0  0  0  0  0  0  0
    2.6654    1.2321   -3.5556 C   0  0  0  0  0  0  0  0  0  0  0  0
    1.7400    0.6356   -3.4527 H   0  0  0  0  0  0  0  0  0  0  0  0
    3.0111    1.1740   -4.6064 H   0  0  0  0  0  0  0  0  0  0  0  0
    2.4287    2.2881   -3.3182 H   0  0  0  0  0  0  0  0  0  0  0  0
    5.0284    1.5700   -2.7869 C   0  0  0  0  0  0  0  0  0  0  0  0
    5.8375    1.2645   -2.0937 H   0  0  0  0  0  0  0  0  0  0  0  0
    4.8214    2.6497   -2.6516 H   0  0  0  0  0  0  0  0  0  0  0  0
    5.4023    1.4353   -3.8196 H   0  0  0  0  0  0  0  0  0  0  0  0
  1  6  1  0  0  0  0
  1  2  1  1  0  0  0
  6  9  1  0  0  0  0
  7  3  1  6  0  0  0
  7  8  1  0  0  0  0
  7  6  1  0  0  0  0
  8 11  1  0  0  0  0
  9 10  1  0  0  0  0
 11  9  2  0  0  0  0
 11 12  1  0  0  0  0
 13  8  1  0  0  0  0
 13 22  1  0  0  0  0
 14 13  1  0  0  0  0
 14 16  1  0  0  0  0
 15 14  1  0  0  0  0
 17 14  1  0  0  0  0
 18 19  1  0  0  0  0
 18 13  1  0  0  0  0
 20 18  1  0  0  0  0
 21 18  1  0  0  0  0
 22 23  1  0  0  0  0
 22 25  1  0  0  0  0
 24 22  1  0  0  0  0
 26  1  1  0  0  0  0
 26 29  1  0  0  0  0
 27  4  1  6  0  0  0
 27 28  1  0  0  0  0
 27 26  1  0  0  0  0
 28 31  1  0  0  0  0
 29 30  1  0  0  0  0
 31 32  1  0  0  0  0
 31 29  2  0  0  0  0
 33 42  1  0  0  0  0
 33 28  1  0  0  0  0
 33 38  1  0  0  0  0
 34 33  1  0  0  0  0
 35 34  1  0  0  0  0
 36 34  1  0  0  0  0
 37 34  1  0  0  0  0
 38 39  1  0  0  0  0
 40 38  1  0  0  0  0
 41 38  1  0  0  0  0
 42 45  1  0  0  0  0
 43 42  1  0  0  0  0
 44 42  1  0  0  0  0
 46 49  1  0  0  0  0
 46  1  1  0  0  0  0
 47  5  1  6  0  0  0
 47 46  1  0  0  0  0
 48 47  1  0  0  0  0
 48 51  1  0  0  0  0
 49 50  1  0  0  0  0
 51 49  2  0  0  0  0
 52 51  1  0  0  0  0
 53 48  1  0  0  0  0
 54 57  1  0  0  0  0
 54 53  1  0  0  0  0
 54 55  1  0  0  0  0
 56 54  1  0  0  0  0
 58 59  1  0  0  0  0
 58 61  1  0  0  0  0
 58 53  1  0  0  0  0
 60 58  1  0  0  0  0
 62 64  1  0  0  0  0
 62 53  1  0  0  0  0
 62 63  1  0  0  0  0
 65 62  1  0  0  0  0
M  END
