1,2,3
q = -1.0, confidence = 0.0

 63 63  0  0  0  0  0  0  0  0999 V2000
    0.0566    0.2737    2.0058 S   0  0  0  0  0  0  0  0  0  0  0  0
    0.0158   -1.8556   -0.8487 S   0  0  0  0  0  0  0  0  0  0  0  0
   -0.1490    1.6710   -1.2484 S   0  0  0  0  0  0  0  0  0  0  0  0
    2.0594    0.1192   -0.1473 B   0  0  0  0  0  0  0  0  0  0  0  0
   -1.8715   -0.2184    3.8290 C   0  0  0  0  0  0  0  0  0  0  0  0
   -0.9586   -2.2658    2.6643 C   0  0  0  0  0  0  0  0  0  0  0  0
    0.4520   -1.0635    4.3909 C   0  0  0  0  0  0  0  0  0  0  0  0
   -0.6129   -0.9181    3.3006 C   0  0  0  0  0  0  0  0  0  0  0  0
    1.6577   -0.3872    1.4022 C   0  0  0  0  0  0  0  0  0  0  0  0
   -2.0290   -3.2492   -1.9255 C   0  0  0  0  0  0  0  0  0  0  0  0
    0.1453   -3.2491   -3.2302 C   0  0  0  0  0  0  0  0  0  0  0  0
   -1.3384   -1.1964   -3.2257 C   0  0  0  0  0  0  0  0  0  0  0  0
   -0.8495   -2.4065   -2.4272 C   0  0  0  0  0  0  0  0  0  0  0  0
    1.5327   -0.9471   -1.3280 C   0  0  0  0  0  0  0  0  0  0  0  0
   -0.0473    4.4314   -1.2884 C   0  0  0  0  0  0  0  0  0  0  0  0
   -1.2805    3.3944    0.6663 C   0  0  0  0  0  0  0  0  0  0  0  0
   -2.2754    3.2790   -1.6528 C   0  0  0  0  0  0  0  0  0  0  0  0
   -0.9799    3.3064   -0.8314 C   0  0  0  0  0  0  0  0  0  0  0  0
    1.5000    1.6618   -0.4493 C   0  0  0  0  0  0  0  0  0  0  0  0
    3.6973    0.1007   -0.1549 C   0  0  0  0  0  0  0  0  0  0  0  0
    4.4964    1.2670   -0.1447 C   0  0  0  0  0  0  0  0  0  0  0  0
    5.8994    1.2156   -0.0757 C   0  0  0  0  0  0  0  0  0  0  0  0
    6.5574   -0.0212   -0.0066 C   0  0  0  0  0  0  0  0  0  0  0  0
    5.7940   -1.2000   -0.0025 C   0  0  0  0  0  0  0  0  0  0  0  0
    4.3946   -1.1302   -0.0752 C   0  0  0  0  0  0  0  0  0  0  0  0
   -1.6267    0.7608    4.2867 H   0  0  0  0  0  0  0  0  0  0  0  0
   -2.3471   -0.8539    4.6048 H   0  0  0  0  0  0  0  0  0  0  0  0
   -2.6113   -0.0584    3.0179 H   0  0  0  0  0  0  0  0  0  0  0  0
   -0.0810   -2.7307    2.1730 H   0  0  0  0  0  0  0  0  0  0  0  0
   -1.7658   -2.1593    1.9119 H   0  0  0  0  0  0  0  0  0  0  0  0
   -1.3151   -2.9643    3.4505 H   0  0  0  0  0  0  0  0  0  0  0  0
    1.3733   -1.5408    4.0024 H   0  0  0  0  0  0  0  0  0  0  0  0
    0.0581   -1.7045    5.2072 H   0  0  0  0  0  0  0  0  0  0  0  0
    0.7229   -0.0800    4.8240 H   0  0  0  0  0  0  0  0  0  0  0  0
    2.4135   -0.0356    2.1321 H   0  0  0  0  0  0  0  0  0  0  0  0
    1.6227   -1.4957    1.4611 H   0  0  0  0  0  0  0  0  0  0  0  0
   -1.6803   -4.1234   -1.3400 H   0  0  0  0  0  0  0  0  0  0  0  0
   -2.6094   -3.6236   -2.7943 H   0  0  0  0  0  0  0  0  0  0  0  0
   -2.7121   -2.6452   -1.2937 H   0  0  0  0  0  0  0  0  0  0  0  0
    1.0118   -2.6472   -3.5686 H   0  0  0  0  0  0  0  0  0  0  0  0
   -0.3584   -3.6527   -4.1334 H   0  0  0  0  0  0  0  0  0  0  0  0
    0.5232   -4.1038   -2.6345 H   0  0  0  0  0  0  0  0  0  0  0  0
   -0.5085   -0.5144   -3.4972 H   0  0  0  0  0  0  0  0  0  0  0  0
   -2.0958   -0.6194   -2.6577 H   0  0  0  0  0  0  0  0  0  0  0  0
   -1.8115   -1.5440   -4.1684 H   0  0  0  0  0  0  0  0  0  0  0  0
    2.2896   -1.7267   -1.5414 H   0  0  0  0  0  0  0  0  0  0  0  0
    1.3308   -0.4098   -2.2789 H   0  0  0  0  0  0  0  0  0  0  0  0
    0.9007    4.4358   -0.7150 H   0  0  0  0  0  0  0  0  0  0  0  0
   -0.5445    5.4105   -1.1253 H   0  0  0  0  0  0  0  0  0  0  0  0
    0.1950    4.3422   -2.3661 H   0  0  0  0  0  0  0  0  0  0  0  0
   -0.3643    3.2950    1.2814 H   0  0  0  0  0  0  0  0  0  0  0  0
   -1.9979    2.6089    0.9783 H   0  0  0  0  0  0  0  0  0  0  0  0
   -1.7351    4.3817    0.8935 H   0  0  0  0  0  0  0  0  0  0  0  0
   -2.0634    3.2122   -2.7386 H   0  0  0  0  0  0  0  0  0  0  0  0
   -2.8473    4.2121   -1.4682 H   0  0  0  0  0  0  0  0  0  0  0  0
   -2.9167    2.4222   -1.3607 H   0  0  0  0  0  0  0  0  0  0  0  0
    2.1618    2.1981   -1.1587 H   0  0  0  0  0  0  0  0  0  0  0  0
    1.4394    2.2644    0.4816 H   0  0  0  0  0  0  0  0  0  0  0  0
    4.0167    2.2585   -0.1893 H   0  0  0  0  0  0  0  0  0  0  0  0
    6.4827    2.1503   -0.0755 H   0  0  0  0  0  0  0  0  0  0  0  0
    7.6563   -0.0674    0.0458 H   0  0  0  0  0  0  0  0  0  0  0  0
    6.2940   -2.1801    0.0567 H   0  0  0  0  0  0  0  0  0  0  0  0
    3.8234   -2.0748   -0.0638 H   0  0  0  0  0  0  0  0  0  0  0  0
  1  8  1  0  0  0  0
  3 18  1  0  0  0  0
  3 19  1  0  0  0  0
  4  9  1  0  0  0  0
  5 26  1  0  0  0  0
  5 27  1  0  0  0  0
  6  8  1  0  0  0  0
  6 31  1  0  0  0  0
  7 34  1  0  0  0  0
  7 33  1  0  0  0  0
  8  5  1  0  0  0  0
  8  7  1  0  0  0  0
  9 36  1  0  0  0  0
  9  1  1  0  0  0  0
  9 35  1  0  0  0  0
 10 37  1  0  0  0  0
 10 39  1  0  0  0  0
 11 42  1  0  0  0  0
 11 13  1  0  0  0  0
 12 44  1  0  0  0  0
 12 13  1  0  0  0  0
 13 10  1  0  0  0  0
 13  2  1  0  0  0  0
 14  2  1  0  0  0  0
 14  4  1  0  0  0  0
 15 49  1  0  0  0  0
 15 18  1  0  0  0  0
 15 48  1  0  0  0  0
 16 53  1  0  0  0  0
 16 52  1  0  0  0  0
 16 51  1  0  0  0  0
 17 55  1  0  0  0  0
 17 56  1  0  0  0  0
 17 18  1  0  0  0  0
 18 16  1  0  0  0  0
 19  4  1  0  0  0  0
 19 58  1  0  0  0  0
 20  4  1  0  0  0  0
 20 21  2  0  0  0  0
 20 25  1  0  0  0  0
 21 22  1  0  0  0  0
 22 60  1  0  0  0  0
 22 23  2  0  0  0  0
 23 24  1  0  0  0  0
 23 61  1  0  0  0  0
 24 62  1  0  0  0  0
 25 63  1  0  0  0  0
 25 24  2  0  0  0  0
 28  5  1  0  0  0  0
 29  6  1  0  0  0  0
 30  6  1  0  0  0  0
 32  7  1  0  0  0  0
 38 10  1  0  0  0  0
 40 11  1  0  0  0  0
 41 11  1  0  0  0  0
 43 12  1  0  0  0  0
 45 12  1  0  0  0  0
 46 14  1  0  0  0  0
 47 14  1  0  0  0  0
 50 15  1  0  0  0  0
 54 17  1  0  0  0  0
 57 19  1  0  0  0  0
 59 21  1  0  0  0  0
M  END
