1,2,3
q = -1.0

 59 64  0  0  1  0  0  0  0  0999 V2000
   -1.1920   -0.4695   -0.9138 S   0  0  0  0  0  1  0  0  0  0  0  0
    1.2410    2.4219   -0.0373 S   0  0  0  0  0  1  0  0  0  0  0  0
    2.2583   -1.3033    0.2350 S   0  0  0  0  0  1  0  0  0  0  0  0
    0.9212   -1.0549   -2.6479 N   0  0  0  0  0  0  0  0  0  0  0  0
   -0.3943   -2.7642   -2.1944 N   0  0  0  0  0  0  0  0  0  0  0  0
    0.6665    1.5046   -2.6148 N   0  0  0  0  0  0  0  0  0  0  0  0
   -0.7168    3.0426   -1.8586 N   0  0  0  0  0  0  0  0  0  0  0  0
    2.9049    0.4133   -1.8752 N   0  0  0  0  0  0  0  0  0  0  0  0
    4.4114    0.3256   -0.2719 N   0  0  0  0  0  0  0  0  0  0  0  0
   -0.1941   -1.4187   -1.9496 C   0  0  1  0  0  3  0  0  0  0  0  0
    1.4230   -2.1697   -3.3057 C   0  0  0  0  0  0  0  0  0  0  0  0
    2.3110   -2.1016   -3.9400 H   0  0  0  0  0  0  0  0  0  0  0  0
    0.6168   -3.2374   -3.0270 C   0  0  0  0  0  0  0  0  0  0  0  0
    0.6348   -4.2721   -3.3792 H   0  0  0  0  0  0  0  0  0  0  0  0
    0.3895    2.2933   -1.5347 C   0  0  2  0  0  3  0  0  0  0  0  0
   -0.2566    1.7803   -3.6155 C   0  0  0  0  0  0  0  0  0  0  0  0
   -0.2231    1.2622   -4.5779 H   0  0  0  0  0  0  0  0  0  0  0  0
   -1.1216    2.7342   -3.1527 C   0  0  0  0  0  0  0  0  0  0  0  0
   -1.9918    3.2122   -3.6102 H   0  0  0  0  0  0  0  0  0  0  0  0
    3.1981   -0.1779   -0.6791 C   0  0  1  0  0  3  0  0  0  0  0  0
    3.9327    1.2869   -2.2044 C   0  0  0  0  0  0  0  0  0  0  0  0
    3.9110    1.8655   -3.1319 H   0  0  0  0  0  0  0  0  0  0  0  0
    4.8705    1.2435   -1.2096 C   0  0  0  0  0  0  0  0  0  0  0  0
    5.8321    1.7504   -1.0921 H   0  0  0  0  0  0  0  0  0  0  0  0
   -1.4316   -3.5841   -1.6555 C   0  0  0  0  0  0  0  0  0  0  0  0
   -1.0875   -4.8034   -1.0465 C   0  0  0  0  0  0  0  0  0  0  0  0
   -0.0282   -5.0866   -0.9585 H   0  0  0  0  0  0  0  0  0  0  0  0
   -2.0991   -5.6400   -0.5512 C   0  0  0  0  0  0  0  0  0  0  0  0
   -1.8314   -6.6015   -0.0878 H   0  0  0  0  0  0  0  0  0  0  0  0
   -3.4455   -5.2540   -0.6482 C   0  0  0  0  0  0  0  0  0  0  0  0
   -4.2374   -5.9143   -0.2646 H   0  0  0  0  0  0  0  0  0  0  0  0
   -3.7799   -4.0315   -1.2552 C   0  0  0  0  0  0  0  0  0  0  0  0
   -4.8352   -3.7349   -1.3527 H   0  0  0  0  0  0  0  0  0  0  0  0
   -2.7779   -3.1952   -1.7677 C   0  0  0  0  0  0  0  0  0  0  0  0
   -3.0308   -2.2515   -2.2696 H   0  0  0  0  0  0  0  0  0  0  0  0
   -1.4295    3.9204   -0.9760 C   0  0  0  0  0  0  0  0  0  0  0  0
   -1.9364    3.4202    0.2360 C   0  0  0  0  0  0  0  0  0  0  0  0
   -1.7549    2.3755    0.5231 H   0  0  0  0  0  0  0  0  0  0  0  0
   -2.6655    4.2751    1.0719 C   0  0  0  0  0  0  0  0  0  0  0  0
   -3.0607    3.8852    2.0211 H   0  0  0  0  0  0  0  0  0  0  0  0
   -2.8939    5.6101    0.6988 C   0  0  0  0  0  0  0  0  0  0  0  0
   -3.4676    6.2764    1.3600 H   0  0  0  0  0  0  0  0  0  0  0  0
   -2.3889    6.0960   -0.5171 C   0  0  0  0  0  0  0  0  0  0  0  0
   -2.5625    7.1416   -0.8111 H   0  0  0  0  0  0  0  0  0  0  0  0
   -1.6489    5.2525   -1.3594 C   0  0  0  0  0  0  0  0  0  0  0  0
   -1.2315    5.6257   -2.3062 H   0  0  0  0  0  0  0  0  0  0  0  0
    5.0674    0.0395    0.9692 C   0  0  0  0  0  0  0  0  0  0  0  0
    5.3119    1.0975    1.8600 C   0  0  0  0  0  0  0  0  0  0  0  0
    4.9699    2.1117    1.6063 H   0  0  0  0  0  0  0  0  0  0  0  0
    5.9720    0.8365    3.0693 C   0  0  0  0  0  0  0  0  0  0  0  0
    6.1668    1.6606    3.7714 H   0  0  0  0  0  0  0  0  0  0  0  0
    6.3730   -0.4712    3.3852 C   0  0  0  0  0  0  0  0  0  0  0  0
    6.8901   -0.6728    4.3350 H   0  0  0  0  0  0  0  0  0  0  0  0
    6.1162   -1.5220    2.4895 C   0  0  0  0  0  0  0  0  0  0  0  0
    6.4350   -2.5461    2.7341 H   0  0  0  0  0  0  0  0  0  0  0  0
    5.4639   -1.2723    1.2744 C   0  0  0  0  0  0  0  0  0  0  0  0
    5.2651   -2.0830    0.5599 H   0  0  0  0  0  0  0  0  0  0  0  0
    1.6547    0.3163   -2.7937 B   0  0  1  0  0  0  0  0  0  0  0  0
    2.0612    0.3649   -3.9488 H   0  0  0  0  0  0  0  0  0  0  0  0
  4 10  1  0  0  0  0
  5 10  1  0  0  0  0
  5 25  1  0  0  0  0
  6 15  1  0  0  0  0
  7 15  1  0  0  0  0
  7 36  1  0  0  0  0
  8 20  1  0  0  0  0
  9 47  1  0  0  0  0
 10  1  1  1  0  0  0
 11 13  2  0  0  0  0
 11  4  1  0  0  0  0
 12 11  1  0  0  0  0
 13  5  1  0  0  0  0
 14 13  1  0  0  0  0
 15  2  1  6  0  0  0
 16 18  2  0  0  0  0
 16  6  1  0  0  0  0
 17 16  1  0  0  0  0
 18  7  1  0  0  0  0
 19 18  1  0  0  0  0
 20  9  1  0  0  0  0
 20  3  1  1  0  0  0
 21  8  1  0  0  0  0
 21 23  2  0  0  0  0
 22 21  1  0  0  0  0
 23 24  1  0  0  0  0
 23  9  1  0  0  0  0
 25 26  1  0  0  0  0
 26 27  1  0  0  0  0
 26 28  2  0  0  0  0
 28 29  1  0  0  0  0
 30 28  1  0  0  0  0
 30 31  1  0  0  0  0
 32 30  2  0  0  0  0
 33 32  1  0  0  0  0
 34 25  2  0  0  0  0
 34 32  1  0  0  0  0
 35 34  1  0  0  0  0
 36 37  1  0  0  0  0
 37 38  1  0  0  0  0
 37 39  2  0  0  0  0
 39 40  1  0  0  0  0
 41 39  1  0  0  0  0
 41 42  1  0  0  0  0
 43 41  2  0  0  0  0
 44 43  1  0  0  0  0
 45 36  2  0  0  0  0
 45 43  1  0  0  0  0
 46 45  1  0  0  0  0
 47 56  2  0  0  0  0
 47 48  1  0  0  0  0
 48 50  2  0  0  0  0
 49 48  1  0  0  0  0
 50 52  1  0  0  0  0
 50 51  1  0  0  0  0
 52 53  1  0  0  0  0
 54 55  1  0  0  0  0
 54 52  2  0  0  0  0
 56 54  1  0  0  0  0
 57 56  1  0  0  0  0
 58 59  1  6  0  0  0
 58  4  1  0  0  0  0
 58  6  1  0  0  0  0
 58  8  1  0  0  0  0
M  END
