1,2,3
q = 0.0, confidence = 1.0

 35 35  0  0  0  0  0  0  0  0999 V2000
   -0.3306   -0.7861    0.7757 S   0  0  0  0  0  0  0  0  0  0  0  0
    2.7000    0.1299    1.3637 S   0  0  0  0  0  0  0  0  0  0  0  0
    0.9018    2.0104   -0.6375 S   0  0  0  0  0  0  0  0  0  0  0  0
   -3.5157    2.2088   -0.1726 S   0  0  0  0  0  0  0  0  0  0  0  0
   -3.2142   -1.5068   -0.7492 S   0  0  0  0  0  0  0  0  0  0  0  0
    0.3218   -0.8400    2.5081 C   0  0  0  0  0  0  0  0  0  0  0  0
    1.8335   -0.9466    2.5800 C   0  0  0  0  0  0  0  0  0  0  0  0
    2.1500    1.8239    1.8735 C   0  0  0  0  0  0  0  0  0  0  0  0
    2.0262    2.7027    0.6432 C   0  0  0  0  0  0  0  0  0  0  0  0
   -0.7615    2.3354    0.1045 C   0  0  0  0  0  0  0  0  0  0  0  0
   -1.8530    1.8591   -0.8481 C   0  0  0  0  0  0  0  0  0  0  0  0
   -3.8380    0.7573    0.9018 C   0  0  0  0  0  0  0  0  0  0  0  0
   -4.4035   -0.4768    0.1972 C   0  0  0  0  0  0  0  0  0  0  0  0
   -2.4700   -2.5280    0.5882 C   0  0  0  0  0  0  0  0  0  0  0  0
   -0.9485   -2.5068    0.5129 C   0  0  0  0  0  0  0  0  0  0  0  0
   -0.1708   -1.6840    3.0313 H   0  0  0  0  0  0  0  0  0  0  0  0
   -0.0452    0.0895    2.9879 H   0  0  0  0  0  0  0  0  0  0  0  0
    2.1943   -1.9623    2.3211 H   0  0  0  0  0  0  0  0  0  0  0  0
    2.2160   -0.7007    3.5922 H   0  0  0  0  0  0  0  0  0  0  0  0
    1.1868    1.7475    2.4147 H   0  0  0  0  0  0  0  0  0  0  0  0
    2.9141    2.2210    2.5723 H   0  0  0  0  0  0  0  0  0  0  0  0
    2.9996    2.8278    0.1259 H   0  0  0  0  0  0  0  0  0  0  0  0
    1.6581    3.7151    0.9073 H   0  0  0  0  0  0  0  0  0  0  0  0
   -0.8139    3.4326    0.2566 H   0  0  0  0  0  0  0  0  0  0  0  0
   -0.8455    1.8336    1.0890 H   0  0  0  0  0  0  0  0  0  0  0  0
   -1.7978    2.4016   -1.8136 H   0  0  0  0  0  0  0  0  0  0  0  0
   -1.7809    0.7746   -1.0627 H   0  0  0  0  0  0  0  0  0  0  0  0
   -2.9337    0.5129    1.4978 H   0  0  0  0  0  0  0  0  0  0  0  0
   -4.5972    1.1382    1.6174 H   0  0  0  0  0  0  0  0  0  0  0  0
   -5.1617   -0.1732   -0.5527 H   0  0  0  0  0  0  0  0  0  0  0  0
   -4.9200   -1.1399    0.9234 H   0  0  0  0  0  0  0  0  0  0  0  0
   -2.8291   -2.1603    1.5709 H   0  0  0  0  0  0  0  0  0  0  0  0
   -2.8188   -3.5766    0.4782 H   0  0  0  0  0  0  0  0  0  0  0  0
   -0.4690   -3.1760    1.2565 H   0  0  0  0  0  0  0  0  0  0  0  0
   -0.5941   -2.8155   -0.4893 H   0  0  0  0  0  0  0  0  0  0  0  0
  1  6  1  0  0  0  0
  2  8  1  0  0  0  0
  2  7  1  0  0  0  0
  3 10  1  0  0  0  0
  3  9  1  0  0  0  0
  4 12  1  0  0  0  0
  5 13  1  0  0  0  0
  5 14  1  0  0  0  0
  6  7  1  0  0  0  0
  6 17  1  0  0  0  0
  6 16  1  0  0  0  0
  7 19  1  0  0  0  0
  8 20  1  0  0  0  0
  8 21  1  0  0  0  0
  9 23  1  0  0  0  0
  9  8  1  0  0  0  0
 10 24  1  0  0  0  0
 10 25  1  0  0  0  0
 11  4  1  0  0  0  0
 11 10  1  0  0  0  0
 12 28  1  0  0  0  0
 12 29  1  0  0  0  0
 13 12  1  0  0  0  0
 13 31  1  0  0  0  0
 14 32  1  0  0  0  0
 15 14  1  0  0  0  0
 15  1  1  0  0  0  0
 15 34  1  0  0  0  0
 18  7  1  0  0  0  0
 22  9  1  0  0  0  0
 26 11  1  0  0  0  0
 27 11  1  0  0  0  0
 30 13  1  0  0  0  0
 33 14  1  0  0  0  0
 35 15  1  0  0  0  0
M  END
