1,27,28
q = -1.0, confidence = 0.044

 68 73  0  0  1  0  0  0  0  0999 V2000
    0.5321   -2.1242    0.6377 S   0  0  0  0  0  1  0  0  0  0  0  0
    1.3168   -0.6861   -1.6335 N   0  0  0  0  0  0  0  0  0  0  0  0
    2.9439   -1.7284   -0.5826 N   0  0  0  0  0  0  0  0  0  0  0  0
   -0.0024    0.0006   -2.0819 B   0  0  1  0  0  0  0  0  0  0  0  0
   -0.0033    0.0009   -3.3112 H   0  0  0  0  0  0  0  0  0  0  0  0
    1.5911   -1.4872   -0.5599 C   0  0  2  0  0  3  0  0  0  0  0  0
    3.5157   -1.0865   -1.6690 C   0  0  0  0  0  0  0  0  0  0  0  0
    4.5839   -1.1620   -1.8894 H   0  0  0  0  0  0  0  0  0  0  0  0
    2.4991   -0.4380   -2.3170 C   0  0  0  0  0  0  0  0  0  0  0  0
    2.5132    0.1883   -3.2131 H   0  0  0  0  0  0  0  0  0  0  0  0
    3.6648   -2.5354    0.4001 C   0  0  0  0  0  0  0  0  0  0  0  0
    2.9913   -2.5941    1.2812 H   0  0  0  0  0  0  0  0  0  0  0  0
    4.5785   -1.9812    0.6913 H   0  0  0  0  0  0  0  0  0  0  0  0
    4.0108   -3.9159   -0.1149 C   0  0  0  0  0  0  0  0  0  0  0  0
    2.9831   -4.8286   -0.4319 C   0  0  0  0  0  0  0  0  0  0  0  0
    1.9333   -4.5285   -0.2835 H   0  0  0  0  0  0  0  0  0  0  0  0
    3.2971   -6.1039   -0.9202 C   0  0  0  0  0  0  0  0  0  0  0  0
    2.4883   -6.8106   -1.1610 H   0  0  0  0  0  0  0  0  0  0  0  0
    4.6386   -6.4850   -1.0951 C   0  0  0  0  0  0  0  0  0  0  0  0
    4.8825   -7.4883   -1.4765 H   0  0  0  0  0  0  0  0  0  0  0  0
    5.6656   -5.5837   -0.7787 C   0  0  0  0  0  0  0  0  0  0  0  0
    6.7185   -5.8761   -0.9109 H   0  0  0  0  0  0  0  0  0  0  0  0
    5.3510   -4.3041   -0.2933 C   0  0  0  0  0  0  0  0  0  0  0  0
    6.1588   -3.5973   -0.0436 H   0  0  0  0  0  0  0  0  0  0  0  0
   -1.2562   -0.7982   -1.6316 N   0  0  0  0  0  0  0  0  0  0  0  0
   -2.0855   -0.6351   -0.5567 C   0  0  1  0  0  3  0  0  0  0  0  0
   -2.1051    0.6002    0.6412 S   0  0  0  0  0  1  0  0  0  0  0  0
    1.5716    1.5222    0.6390 S   0  0  0  0  0  1  0  0  0  0  0  0
    0.4907    2.1228   -0.5578 C   0  0  2  0  0  3  0  0  0  0  0  0
   -0.0665    1.4860   -1.6320 N   0  0  0  0  0  0  0  0  0  0  0  0
   -0.8721    2.3871   -2.3145 C   0  0  0  0  0  0  0  0  0  0  0  0
   -0.8171    3.5913   -1.6659 C   0  0  0  0  0  0  0  0  0  0  0  0
    0.0249    3.4156   -0.5798 N   0  0  0  0  0  0  0  0  0  0  0  0
    0.3655    4.4427    0.4028 C   0  0  0  0  0  0  0  0  0  0  0  0
    0.7531    3.8882    1.2835 H   0  0  0  0  0  0  0  0  0  0  0  0
   -0.5703    4.9584    0.6948 H   0  0  0  0  0  0  0  0  0  0  0  0
    1.3892    5.4310   -0.1131 C   0  0  0  0  0  0  0  0  0  0  0  0
    2.6928    4.9953   -0.4300 C   0  0  0  0  0  0  0  0  0  0  0  0
    2.9564    3.9358   -0.2809 H   0  0  0  0  0  0  0  0  0  0  0  0
    3.6413    5.9032   -0.9192 C   0  0  0  0  0  0  0  0  0  0  0  0
    4.6573    5.5546   -1.1599 H   0  0  0  0  0  0  0  0  0  0  0  0
    3.3024    7.2558   -1.0953 C   0  0  0  0  0  0  0  0  0  0  0  0
    4.0501    7.9674   -1.4775 H   0  0  0  0  0  0  0  0  0  0  0  0
    2.0089    7.6966   -0.7791 C   0  0  0  0  0  0  0  0  0  0  0  0
    1.7370    8.7547   -0.9122 H   0  0  0  0  0  0  0  0  0  0  0  0
    1.0570    6.7860   -0.2927 C   0  0  0  0  0  0  0  0  0  0  0  0
    0.0414    7.1337   -0.0431 H   0  0  0  0  0  0  0  0  0  0  0  0
   -1.2846    4.5550   -1.8856 H   0  0  0  0  0  0  0  0  0  0  0  0
   -1.4220    2.0873   -3.2106 H   0  0  0  0  0  0  0  0  0  0  0  0
   -2.9723   -1.6849   -0.5793 N   0  0  0  0  0  0  0  0  0  0  0  0
   -2.7042   -2.5008   -1.6663 C   0  0  0  0  0  0  0  0  0  0  0  0
   -3.3051   -3.3872   -1.8866 H   0  0  0  0  0  0  0  0  0  0  0  0
   -1.6343   -1.9456   -2.3151 C   0  0  0  0  0  0  0  0  0  0  0  0
   -1.1004   -2.2709   -3.2120 H   0  0  0  0  0  0  0  0  0  0  0  0
   -4.0318   -1.9044    0.4035 C   0  0  0  0  0  0  0  0  0  0  0  0
   -3.7455   -1.2917    1.2844 H   0  0  0  0  0  0  0  0  0  0  0  0
   -4.0099   -2.9727    0.6949 H   0  0  0  0  0  0  0  0  0  0  0  0
   -5.3997   -1.5124   -0.1122 C   0  0  0  0  0  0  0  0  0  0  0  0
   -5.6750   -0.1656   -0.4282 C   0  0  0  0  0  0  0  0  0  0  0  0
   -4.8899    0.5930   -0.2781 H   0  0  0  0  0  0  0  0  0  0  0  0
   -6.9355    0.2014   -0.9179 C   0  0  0  0  0  0  0  0  0  0  0  0
   -7.1422    1.2556   -1.1580 H   0  0  0  0  0  0  0  0  0  0  0  0
   -7.9366   -0.7690   -1.0955 C   0  0  0  0  0  0  0  0  0  0  0  0
   -8.9267   -0.4777   -1.4781 H   0  0  0  0  0  0  0  0  0  0  0  0
   -7.6708   -2.1096   -0.7801 C   0  0  0  0  0  0  0  0  0  0  0  0
   -8.4507   -2.8746   -0.9143 H   0  0  0  0  0  0  0  0  0  0  0  0
   -6.4063   -2.4782   -0.2932 C   0  0  0  0  0  0  0  0  0  0  0  0
   -6.1990   -3.5316   -0.0443 H   0  0  0  0  0  0  0  0  0  0  0  0
  2  6  1  0  0  0  0
  3  6  1  0  0  0  0
  3 11  1  0  0  0  0
  4  5  1  6  0  0  0
  4  2  1  0  0  0  0
  4 30  1  0  0  0  0
  4 25  1  0  0  0  0
  6  1  1  6  0  0  0
  7  3  1  0  0  0  0
  8  7  1  0  0  0  0
  9  7  2  0  0  0  0
  9  2  1  0  0  0  0
 10  9  1  0  0  0  0
 11 13  1  0  0  0  0
 11 12  1  0  0  0  0
 14 11  1  0  0  0  0
 15 16  1  0  0  0  0
 15 14  2  0  0  0  0
 17 15  1  0  0  0  0
 18 17  1  0  0  0  0
 19 17  2  0  0  0  0
 19 21  1  0  0  0  0
 20 19  1  0  0  0  0
 21 23  2  0  0  0  0
 22 21  1  0  0  0  0
 23 14  1  0  0  0  0
 23 24  1  0  0  0  0
 25 26  1  0  0  0  0
 26 27  1  6  0  0  0
 29 28  1  6  0  0  0
 30 29  1  0  0  0  0
 31 32  2  0  0  0  0
 31 30  1  0  0  0  0
 32 33  1  0  0  0  0
 33 29  1  0  0  0  0
 33 34  1  0  0  0  0
 34 36  1  0  0  0  0
 34 35  1  0  0  0  0
 37 34  1  0  0  0  0
 38 39  1  0  0  0  0
 38 37  2  0  0  0  0
 40 38  1  0  0  0  0
 41 40  1  0  0  0  0
 42 40  2  0  0  0  0
 42 44  1  0  0  0  0
 43 42  1  0  0  0  0
 44 46  2  0  0  0  0
 45 44  1  0  0  0  0
 46 37  1  0  0  0  0
 46 47  1  0  0  0  0
 48 32  1  0  0  0  0
 49 31  1  0  0  0  0
 50 26  1  0  0  0  0
 50 55  1  0  0  0  0
 51 50  1  0  0  0  0
 52 51  1  0  0  0  0
 53 51  2  0  0  0  0
 53 25  1  0  0  0  0
 54 53  1  0  0  0  0
 55 57  1  0  0  0  0
 55 56  1  0  0  0  0
 58 55  1  0  0  0  0
 59 60  1  0  0  0  0
 59 58  2  0  0  0  0
 61 59  1  0  0  0  0
 62 61  1  0  0  0  0
 63 61  2  0  0  0  0
 63 65  1  0  0  0  0
 64 63  1  0  0  0  0
 65 67  2  0  0  0  0
 66 65  1  0  0  0  0
 67 58  1  0  0  0  0
 67 68  1  0  0  0  0
M  END
