1,2,3
q = -1.0, confidence = 0.0

 33 32  0  0  0  0  0  0  0  0999 V2000
    0.0626   -0.1662   -1.9438 S   0  0  0  0  0  0  0  0  0  0  0  0
    0.2517   -1.3475    1.2551 S   0  0  0  0  0  0  0  0  0  0  0  0
   -0.3163    1.9870    0.6923 S   0  0  0  0  0  0  0  0  0  0  0  0
    4.7338   -0.6632   -0.0371 S   0  0  0  0  0  0  0  0  0  0  0  0
    2.1010    0.5194    0.0152 B   0  0  0  0  0  0  0  0  0  0  0  0
    1.7670   -0.4225   -1.3120 C   0  0  0  0  0  0  0  0  0  0  0  0
    1.7159   -0.2598    1.4312 C   0  0  0  0  0  0  0  0  0  0  0  0
    1.3425    1.9960   -0.0922 C   0  0  0  0  0  0  0  0  0  0  0  0
    3.7205    0.8537    0.0316 C   0  0  0  0  0  0  0  0  0  0  0  0
   -0.2052   -1.6949   -2.8958 C   0  0  0  0  0  0  0  0  0  0  0  0
   -0.2581   -1.5641    2.9893 C   0  0  0  0  0  0  0  0  0  0  0  0
   -1.0988    3.4325   -0.0914 C   0  0  0  0  0  0  0  0  0  0  0  0
    6.4125    0.0377    0.0272 C   0  0  0  0  0  0  0  0  0  0  0  0
    2.4496   -0.1907   -2.1587 H   0  0  0  0  0  0  0  0  0  0  0  0
    1.8803   -1.5048   -1.0848 H   0  0  0  0  0  0  0  0  0  0  0  0
    2.5511   -0.9139    1.7647 H   0  0  0  0  0  0  0  0  0  0  0  0
    1.5007    0.4649    2.2473 H   0  0  0  0  0  0  0  0  0  0  0  0
    1.9189    2.7951    0.4258 H   0  0  0  0  0  0  0  0  0  0  0  0
    1.2122    2.3083   -1.1518 H   0  0  0  0  0  0  0  0  0  0  0  0
    3.9917    1.4928   -0.8410 H   0  0  0  0  0  0  0  0  0  0  0  0
    3.9932    1.4150    0.9557 H   0  0  0  0  0  0  0  0  0  0  0  0
    0.5305   -1.7637   -3.7230 H   0  0  0  0  0  0  0  0  0  0  0  0
   -0.1203   -2.5750   -2.2288 H   0  0  0  0  0  0  0  0  0  0  0  0
   -1.2336   -1.6508   -3.3009 H   0  0  0  0  0  0  0  0  0  0  0  0
    0.5488   -2.0625    3.5644 H   0  0  0  0  0  0  0  0  0  0  0  0
   -0.5041   -0.5821    3.4387 H   0  0  0  0  0  0  0  0  0  0  0  0
   -1.1685   -2.1927    2.9848 H   0  0  0  0  0  0  0  0  0  0  0  0
   -0.5394    4.3562    0.1626 H   0  0  0  0  0  0  0  0  0  0  0  0
   -1.1393    3.2936   -1.1895 H   0  0  0  0  0  0  0  0  0  0  0  0
   -2.1323    3.4929    0.2982 H   0  0  0  0  0  0  0  0  0  0  0  0
    7.1389   -0.7998   -0.0022 H   0  0  0  0  0  0  0  0  0  0  0  0
    6.6094    0.7059   -0.8389 H   0  0  0  0  0  0  0  0  0  0  0  0
    6.5774    0.6155    0.9622 H   0  0  0  0  0  0  0  0  0  0  0  0
  1  6  1  0  0  0  0
  2  7  1  0  0  0  0
  2 11  1  0  0  0  0
  4 13  1  0  0  0  0
  4  9  1  0  0  0  0
  5  9  1  0  0  0  0
  5  7  1  0  0  0  0
  6 15  1  0  0  0  0
  6  5  1  0  0  0  0
  7 16  1  0  0  0  0
  7 17  1  0  0  0  0
  8  5  1  0  0  0  0
  8 18  1  0  0  0  0
  8  3  1  0  0  0  0
  9 21  1  0  0  0  0
 10 23  1  0  0  0  0
 10  1  1  0  0  0  0
 11 26  1  0  0  0  0
 11 25  1  0  0  0  0
 12 28  1  0  0  0  0
 12 30  1  0  0  0  0
 12  3  1  0  0  0  0
 13 33  1  0  0  0  0
 14  6  1  0  0  0  0
 19  8  1  0  0  0  0
 20  9  1  0  0  0  0
 22 10  1  0  0  0  0
 24 10  1  0  0  0  0
 27 11  1  0  0  0  0
 29 12  1  0  0  0  0
 31 13  1  0  0  0  0
 32 13  1  0  0  0  0
M  END
