1,23,24
q = 0.0, confidence = 0.992

 57 60  0  0  0  0  0  0  0  0999 V2000
    1.7637   -1.9431   -0.0000 S   0  0  0  0  0  0  0  0  0  0  0  0
    2.9411   -1.6362   -1.3862 C   0  0  0  0  0  0  0  0  0  0  0  0
    3.3449   -0.6105   -1.2605 H   0  0  0  0  0  0  0  0  0  0  0  0
    3.7750   -2.3565   -1.2613 H   0  0  0  0  0  0  0  0  0  0  0  0
    2.2864   -1.8083   -2.7636 C   0  0  0  0  0  0  0  0  0  0  0  0
    3.0714   -1.6054   -3.5231 H   0  0  0  0  0  0  0  0  0  0  0  0
    1.9729   -2.8627   -2.9015 H   0  0  0  0  0  0  0  0  0  0  0  0
    1.1076   -0.8823   -2.9539 C   0  0  0  0  0  0  0  0  0  0  0  0
   -0.2037   -1.3840   -2.9631 C   0  0  0  0  0  0  0  0  0  0  0  0
   -0.3602   -2.4747   -2.9333 H   0  0  0  0  0  0  0  0  0  0  0  0
   -1.3176   -0.5179   -2.9538 C   0  0  0  0  0  0  0  0  0  0  0  0
   -1.0965    0.8685   -2.9635 C   0  0  0  0  0  0  0  0  0  0  0  0
   -1.9628    1.5494   -2.9337 H   0  0  0  0  0  0  0  0  0  0  0  0
    0.2104    1.4001   -2.9539 C   0  0  0  0  0  0  0  0  0  0  0  0
    1.3006    0.5154   -2.9637 C   0  0  0  0  0  0  0  0  0  0  0  0
    2.3234    0.9252   -2.9339 H   0  0  0  0  0  0  0  0  0  0  0  0
    0.4230    2.8840   -2.7637 C   0  0  0  0  0  0  0  0  0  0  0  0
   -0.1456    3.4623   -3.5230 H   0  0  0  0  0  0  0  0  0  0  0  0
    1.4928    3.1398   -2.9021 H   0  0  0  0  0  0  0  0  0  0  0  0
   -0.0530    3.3650   -1.3861 C   0  0  0  0  0  0  0  0  0  0  0  0
   -1.1432    3.2020   -1.2602 H   0  0  0  0  0  0  0  0  0  0  0  0
    0.1541    4.4472   -1.2612 H   0  0  0  0  0  0  0  0  0  0  0  0
    0.8013    2.4984   -0.0000 S   0  0  0  0  0  0  0  0  0  0  0  0
   -2.5650   -0.5552    0.0000 S   0  0  0  0  0  0  0  0  0  0  0  0
   -2.8880   -1.7285   -1.3862 C   0  0  0  0  0  0  0  0  0  0  0  0
   -2.2022   -2.5915   -1.2603 H   0  0  0  0  0  0  0  0  0  0  0  0
   -3.9290   -2.0898   -1.2617 H   0  0  0  0  0  0  0  0  0  0  0  0
   -2.7091   -1.0757   -2.7637 C   0  0  0  0  0  0  0  0  0  0  0  0
   -2.9258   -1.8571   -3.5231 H   0  0  0  0  0  0  0  0  0  0  0  0
   -3.4654   -0.2770   -2.9020 H   0  0  0  0  0  0  0  0  0  0  0  0
    1.1076   -0.8823    2.9539 C   0  0  0  0  0  0  0  0  0  0  0  0
    2.2864   -1.8083    2.7636 C   0  0  0  0  0  0  0  0  0  0  0  0
    2.9411   -1.6362    1.3862 C   0  0  0  0  0  0  0  0  0  0  0  0
    3.3449   -0.6105    1.2605 H   0  0  0  0  0  0  0  0  0  0  0  0
    3.7750   -2.3565    1.2613 H   0  0  0  0  0  0  0  0  0  0  0  0
    3.0714   -1.6054    3.5231 H   0  0  0  0  0  0  0  0  0  0  0  0
    1.9729   -2.8627    2.9015 H   0  0  0  0  0  0  0  0  0  0  0  0
   -0.2037   -1.3840    2.9631 C   0  0  0  0  0  0  0  0  0  0  0  0
   -1.3176   -0.5179    2.9538 C   0  0  0  0  0  0  0  0  0  0  0  0
   -0.3602   -2.4747    2.9333 H   0  0  0  0  0  0  0  0  0  0  0  0
   -1.0965    0.8685    2.9635 C   0  0  0  0  0  0  0  0  0  0  0  0
    0.2104    1.4001    2.9539 C   0  0  0  0  0  0  0  0  0  0  0  0
   -1.9628    1.5494    2.9337 H   0  0  0  0  0  0  0  0  0  0  0  0
    1.3006    0.5154    2.9637 C   0  0  0  0  0  0  0  0  0  0  0  0
   -2.8880   -1.7285    1.3862 C   0  0  0  0  0  0  0  0  0  0  0  0
   -2.2022   -2.5915    1.2603 H   0  0  0  0  0  0  0  0  0  0  0  0
   -3.9290   -2.0898    1.2617 H   0  0  0  0  0  0  0  0  0  0  0  0
   -2.7091   -1.0757    2.7637 C   0  0  0  0  0  0  0  0  0  0  0  0
   -2.9258   -1.8571    3.5231 H   0  0  0  0  0  0  0  0  0  0  0  0
   -3.4654   -0.2770    2.9020 H   0  0  0  0  0  0  0  0  0  0  0  0
    2.3234    0.9252    2.9339 H   0  0  0  0  0  0  0  0  0  0  0  0
    0.4230    2.8840    2.7637 C   0  0  0  0  0  0  0  0  0  0  0  0
   -0.1456    3.4623    3.5230 H   0  0  0  0  0  0  0  0  0  0  0  0
    1.4928    3.1398    2.9021 H   0  0  0  0  0  0  0  0  0  0  0  0
   -0.0530    3.3650    1.3861 C   0  0  0  0  0  0  0  0  0  0  0  0
   -1.1432    3.2020    1.2602 H   0  0  0  0  0  0  0  0  0  0  0  0
    0.1541    4.4472    1.2612 H   0  0  0  0  0  0  0  0  0  0  0  0
  1 33  1  0  0  0  0
  2  4  1  0  0  0  0
  2  3  1  0  0  0  0
  2  1  1  0  0  0  0
  5  2  1  0  0  0  0
  6  5  1  0  0  0  0
  7  5  1  0  0  0  0
  8  5  1  0  0  0  0
  9  8  1  0  0  0  0
  9 11  2  0  0  0  0
  9 10  1  0  0  0  0
 11 28  1  0  0  0  0
 12 14  2  0  0  0  0
 12 11  1  0  0  0  0
 12 13  1  0  0  0  0
 14 17  1  0  0  0  0
 15  8  2  0  0  0  0
 15 14  1  0  0  0  0
 15 16  1  0  0  0  0
 17 20  1  0  0  0  0
 18 17  1  0  0  0  0
 19 17  1  0  0  0  0
 20 22  1  0  0  0  0
 20 21  1  0  0  0  0
 20 23  1  0  0  0  0
 23 55  1  0  0  0  0
 24 45  1  0  0  0  0
 25 27  1  0  0  0  0
 25 26  1  0  0  0  0
 25 24  1  0  0  0  0
 28 25  1  0  0  0  0
 29 28  1  0  0  0  0
 30 28  1  0  0  0  0
 31 38  2  0  0  0  0
 31 44  1  0  0  0  0
 32 37  1  0  0  0  0
 32 31  1  0  0  0  0
 32 36  1  0  0  0  0
 33 32  1  0  0  0  0
 34 33  1  0  0  0  0
 35 33  1  0  0  0  0
 39 38  1  0  0  0  0
 39 41  2  0  0  0  0
 40 38  1  0  0  0  0
 42 41  1  0  0  0  0
 42 44  2  0  0  0  0
 43 41  1  0  0  0  0
 45 48  1  0  0  0  0
 46 45  1  0  0  0  0
 47 45  1  0  0  0  0
 48 50  1  0  0  0  0
 48 39  1  0  0  0  0
 48 49  1  0  0  0  0
 51 44  1  0  0  0  0
 52 54  1  0  0  0  0
 52 42  1  0  0  0  0
 52 53  1  0  0  0  0
 55 52  1  0  0  0  0
 56 55  1  0  0  0  0
 57 55  1  0  0  0  0
M  END
