1,2,3
q = 0.0, confidence = 1.0

 43 44  0  0  0  0  0  0  0  0999 V2000
   -2.3367    0.2659   -0.7592 S   0  0  0  0  0  0  0  0  0  0  0  0
    0.0322    2.2733    0.8250 S   0  0  0  0  0  0  0  0  0  0  0  0
    2.3351    0.1681   -0.8048 S   0  0  0  0  0  0  0  0  0  0  0  0
   -3.1276    1.9280   -0.6198 C   0  0  0  0  0  0  0  0  0  0  0  0
   -2.7085    2.8467    0.5202 C   0  0  0  0  0  0  0  0  0  0  0  0
   -1.3132    3.4519    0.3914 C   0  0  0  0  0  0  0  0  0  0  0  0
    1.4620    3.3758    0.4774 C   0  0  0  0  0  0  0  0  0  0  0  0
    2.8077    2.6630    0.5747 C   0  0  0  0  0  0  0  0  0  0  0  0
    3.1708    1.8047   -0.6300 C   0  0  0  0  0  0  0  0  0  0  0  0
   -2.9076   -0.5430    0.7458 C   0  0  0  0  0  0  0  0  0  0  0  0
   -2.2993   -0.3518    2.0003 C   0  0  0  0  0  0  0  0  0  0  0  0
   -2.8129   -1.0264    3.1175 C   0  0  0  0  0  0  0  0  0  0  0  0
   -3.9133   -1.8884    2.9799 C   0  0  0  0  0  0  0  0  0  0  0  0
   -4.5043   -2.0826    1.7218 C   0  0  0  0  0  0  0  0  0  0  0  0
   -4.0014   -1.4144    0.5954 C   0  0  0  0  0  0  0  0  0  0  0  0
    2.9125   -0.6590    0.6911 C   0  0  0  0  0  0  0  0  0  0  0  0
    4.2666   -1.0423    0.7229 C   0  0  0  0  0  0  0  0  0  0  0  0
    4.7611   -1.7114    1.8512 C   0  0  0  0  0  0  0  0  0  0  0  0
    3.9067   -2.0163    2.9236 C   0  0  0  0  0  0  0  0  0  0  0  0
    2.5524   -1.6537    2.8690 C   0  0  0  0  0  0  0  0  0  0  0  0
    2.0465   -0.9715    1.7521 C   0  0  0  0  0  0  0  0  0  0  0  0
   -4.2096    1.6937   -0.5647 H   0  0  0  0  0  0  0  0  0  0  0  0
   -2.9360    2.3876   -1.6120 H   0  0  0  0  0  0  0  0  0  0  0  0
   -3.4264    3.6950    0.5308 H   0  0  0  0  0  0  0  0  0  0  0  0
   -2.8350    2.3411    1.5007 H   0  0  0  0  0  0  0  0  0  0  0  0
   -1.1876    4.2900    1.1065 H   0  0  0  0  0  0  0  0  0  0  0  0
   -1.1225    3.8321   -0.6334 H   0  0  0  0  0  0  0  0  0  0  0  0
    1.3112    3.8327   -0.5224 H   0  0  0  0  0  0  0  0  0  0  0  0
    1.3874    4.1744    1.2432 H   0  0  0  0  0  0  0  0  0  0  0  0
    3.5838    3.4534    0.6612 H   0  0  0  0  0  0  0  0  0  0  0  0
    2.8789    2.0701    1.5121 H   0  0  0  0  0  0  0  0  0  0  0  0
    2.9584    2.3170   -1.5914 H   0  0  0  0  0  0  0  0  0  0  0  0
    4.2493    1.5497   -0.6252 H   0  0  0  0  0  0  0  0  0  0  0  0
   -1.4263    0.3085    2.1042 H   0  0  0  0  0  0  0  0  0  0  0  0
   -2.3438   -0.8816    4.1020 H   0  0  0  0  0  0  0  0  0  0  0  0
   -4.3070   -2.4194    3.8591 H   0  0  0  0  0  0  0  0  0  0  0  0
   -5.3578   -2.7675    1.6100 H   0  0  0  0  0  0  0  0  0  0  0  0
   -4.4462   -1.5760   -0.3979 H   0  0  0  0  0  0  0  0  0  0  0  0
    4.9293   -0.8361   -0.1316 H   0  0  0  0  0  0  0  0  0  0  0  0
    5.8189   -2.0116    1.8826 H   0  0  0  0  0  0  0  0  0  0  0  0
    4.2979   -2.5511    3.8016 H   0  0  0  0  0  0  0  0  0  0  0  0
    1.8773   -1.9068    3.6998 H   0  0  0  0  0  0  0  0  0  0  0  0
    0.9814   -0.7031    1.6871 H   0  0  0  0  0  0  0  0  0  0  0  0
  1  4  1  0  0  0  0
  1 10  1  0  0  0  0
  3  9  1  0  0  0  0
  3 16  1  0  0  0  0
  4 22  1  0  0  0  0
  4  5  1  0  0  0  0
  5 24  1  0  0  0  0
  5 25  1  0  0  0  0
  6  5  1  0  0  0  0
  6  2  1  0  0  0  0
  6 26  1  0  0  0  0
  7  8  1  0  0  0  0
  7  2  1  0  0  0  0
  7 29  1  0  0  0  0
  8 30  1  0  0  0  0
  8 31  1  0  0  0  0
  9 33  1  0  0  0  0
  9  8  1  0  0  0  0
 10 11  1  0  0  0  0
 11 34  1  0  0  0  0
 11 12  2  0  0  0  0
 12 35  1  0  0  0  0
 13 12  1  0  0  0  0
 13 36  1  0  0  0  0
 14 13  2  0  0  0  0
 15 10  2  0  0  0  0
 15 14  1  0  0  0  0
 16 17  2  0  0  0  0
 16 21  1  0  0  0  0
 17 18  1  0  0  0  0
 18 40  1  0  0  0  0
 18 19  2  0  0  0  0
 19 41  1  0  0  0  0
 20 19  1  0  0  0  0
 20 42  1  0  0  0  0
 21 20  2  0  0  0  0
 23  4  1  0  0  0  0
 27  6  1  0  0  0  0
 28  7  1  0  0  0  0
 32  9  1  0  0  0  0
 37 14  1  0  0  0  0
 38 15  1  0  0  0  0
 39 17  1  0  0  0  0
 43 21  1  0  0  0  0
M  END
