1,2,3
q = -2.0, confidence = 0.762

 21 20  0  0  0  0  0  0  0  0999 V2000
   -1.8256   -1.5140   -0.5168 S   0  0  0  0  0  1  0  0  0  0  0  0
   -2.2124    1.5714    0.1869 S   0  0  0  0  0  0  0  0  0  0  0  0
    0.8941    1.6381   -0.5785 S   0  0  0  0  0  1  0  0  0  0  0  0
   -4.0837   -0.8947    1.0306 C   0  0  0  0  0  0  0  0  0  0  0  0
   -4.4294   -1.5516   -1.3899 C   0  0  0  0  0  0  0  0  0  0  0  0
   -3.5577   -0.7657   -0.4026 C   0  0  0  0  0  0  0  0  0  0  0  0
   -3.4603    0.6928   -0.8495 C   0  0  0  0  0  0  0  0  0  0  0  0
   -1.5816    2.8713   -0.9621 C   0  0  0  0  0  0  0  0  0  0  0  0
   -0.1497    3.1720   -0.5628 C   0  0  0  0  0  0  0  0  0  0  0  0
   -5.1079   -0.4709    1.1124 H   0  0  0  0  0  0  0  0  0  0  0  0
   -3.4293   -0.3697    1.7558 H   0  0  0  0  0  0  0  0  0  0  0  0
   -4.1219   -1.9599    1.3302 H   0  0  0  0  0  0  0  0  0  0  0  0
   -5.4740   -1.1752   -1.3774 H   0  0  0  0  0  0  0  0  0  0  0  0
   -4.0376   -1.4759   -2.4236 H   0  0  0  0  0  0  0  0  0  0  0  0
   -4.4495   -2.6236   -1.1097 H   0  0  0  0  0  0  0  0  0  0  0  0
   -3.1285    0.7596   -1.9050 H   0  0  0  0  0  0  0  0  0  0  0  0
   -4.4248    1.2277   -0.7230 H   0  0  0  0  0  0  0  0  0  0  0  0
   -2.2504    3.7511   -0.8664 H   0  0  0  0  0  0  0  0  0  0  0  0
   -1.6330    2.4659   -1.9930 H   0  0  0  0  0  0  0  0  0  0  0  0
    0.3054    3.8747   -1.2905 H   0  0  0  0  0  0  0  0  0  0  0  0
   -0.1010    3.6429    0.4409 H   0  0  0  0  0  0  0  0  0  0  0  0
  1  6  1  0  0  0  0
  3  9  1  0  0  0  0
  4 10  1  0  0  0  0
  4 12  1  0  0  0  0
  4 11  1  0  0  0  0
  5 13  1  0  0  0  0
  5 15  1  0  0  0  0
  5  6  1  0  0  0  0
  6  4  1  0  0  0  0
  7 17  1  0  0  0  0
  7  6  1  0  0  0  0
  7  2  1  0  0  0  0
  8 18  1  0  0  0  0
  8  9  1  0  0  0  0
  8  2  1  0  0  0  0
  9 21  1  0  0  0  0
 14  5  1  0  0  0  0
 16  7  1  0  0  0  0
 19  8  1  0  0  0  0
 20  9  1  0  0  0  0
M  END
