4,5,6
q = -1.0, confidence = 0.01

 44 49  0  0  1  0  0  0  0  0999 V2000
   -0.5892   -0.2924    3.8966 S   0  0  0  0  0  0  0  0  0  0  0  0
   -0.5890    3.5210   -1.6950 S   0  0  0  0  0  0  0  0  0  0  0  0
   -0.5880   -3.2289   -2.2014 S   0  0  0  0  0  0  0  0  0  0  0  0
    0.5817   -0.4949   -2.2795 S   0  0  0  0  0  1  0  0  0  0  0  0
    0.5810   -1.7272    1.5684 S   0  0  0  0  0  1  0  0  0  0  0  0
    0.5812    2.2213    0.7116 S   0  0  0  0  0  1  0  0  0  0  0  0
   -1.4906   -1.3538   -0.6579 N   0  0  0  0  0  0  0  0  0  0  0  0
   -2.2246    0.9748    2.3257 C   0  0  0  0  0  0  0  0  0  0  0  0
   -2.5050    1.6639    4.6721 C   0  0  0  0  0  0  0  0  0  0  0  0
   -2.2220    1.5770    5.7308 H   0  0  0  0  0  0  0  0  0  0  0  0
   -2.5056    3.2153   -3.7764 C   0  0  0  0  0  0  0  0  0  0  0  0
   -2.2231    4.1760   -4.2301 H   0  0  0  0  0  0  0  0  0  0  0  0
   -3.8443    2.6728    2.8984 C   0  0  0  0  0  0  0  0  0  0  0  0
   -4.6193    3.3901    2.5910 H   0  0  0  0  0  0  0  0  0  0  0  0
   -3.2185    1.8870    1.9230 C   0  0  0  0  0  0  0  0  0  0  0  0
   -3.4924    1.9845    0.8651 H   0  0  0  0  0  0  0  0  0  0  0  0
   -3.2184    0.7224   -2.5960 C   0  0  0  0  0  0  0  0  0  0  0  0
   -3.4923   -0.2427   -2.1518 H   0  0  0  0  0  0  0  0  0  0  0  0
   -2.5042   -4.8788   -0.8955 C   0  0  0  0  0  0  0  0  0  0  0  0
   -2.2211   -5.7522   -1.5001 H   0  0  0  0  0  0  0  0  0  0  0  0
   -1.8934   -0.0003   -0.0004 B   0  0  0  0  0  0  0  0  0  0  0  0
   -3.1157   -0.0003   -0.0007 H   0  0  0  0  0  0  0  0  0  0  0  0
   -0.5604   -1.5650   -1.6299 C   0  0  2  0  0  3  0  0  0  0  0  0
   -2.2242    1.5270   -2.0075 C   0  0  0  0  0  0  0  0  0  0  0  0
   -1.4913    0.1070    1.5007 N   0  0  0  0  0  0  0  0  0  0  0  0
   -3.4958    2.5642    4.2595 C   0  0  0  0  0  0  0  0  0  0  0  0
   -4.0002    3.1948    5.0063 H   0  0  0  0  0  0  0  0  0  0  0  0
   -3.4967    2.4082   -4.3497 C   0  0  0  0  0  0  0  0  0  0  0  0
   -4.0018    2.7402   -5.2686 H   0  0  0  0  0  0  0  0  0  0  0  0
   -0.5607    2.1936   -0.5402 C   0  0  2  0  0  3  0  0  0  0  0  0
   -0.5612   -0.6293    2.1698 C   0  0  2  0  0  3  0  0  0  0  0  0
   -3.4953   -4.9717    0.0901 C   0  0  0  0  0  0  0  0  0  0  0  0
   -3.9999   -5.9337    0.2625 H   0  0  0  0  0  0  0  0  0  0  0  0
   -2.2238   -2.5023   -0.3189 C   0  0  0  0  0  0  0  0  0  0  0  0
   -1.8720   -3.6413   -1.0865 C   0  0  0  0  0  0  0  0  0  0  0  0
   -3.8449    1.1749   -3.7636 C   0  0  0  0  0  0  0  0  0  0  0  0
   -4.6203    0.5503   -4.2309 H   0  0  0  0  0  0  0  0  0  0  0  0
   -1.8729    2.7616   -2.6096 C   0  0  0  0  0  0  0  0  0  0  0  0
   -1.4907    1.2460   -0.8436 N   0  0  0  0  0  0  0  0  0  0  0  0
   -1.8730    0.8795    3.6960 C   0  0  0  0  0  0  0  0  0  0  0  0
   -3.2181   -2.6096    0.6721 C   0  0  0  0  0  0  0  0  0  0  0  0
   -3.4923   -1.7423    1.2854 H   0  0  0  0  0  0  0  0  0  0  0  0
   -3.8440   -3.8472    0.8646 C   0  0  0  0  0  0  0  0  0  0  0  0
   -4.6194   -3.9396    1.6391 H   0  0  0  0  0  0  0  0  0  0  0  0
  2 30  1  0  0  0  0
  3 23  1  0  0  0  0
  3 35  1  0  0  0  0
  7 34  1  0  0  0  0
  7 21  1  0  0  0  0
  8 40  1  0  0  0  0
  9 10  1  0  0  0  0
 11 38  1  0  0  0  0
 12 11  1  0  0  0  0
 13 26  2  0  0  0  0
 14 13  1  0  0  0  0
 15  8  2  0  0  0  0
 15 13  1  0  0  0  0
 16 15  1  0  0  0  0
 17 18  1  0  0  0  0
 17 24  1  0  0  0  0
 19 32  1  0  0  0  0
 20 19  1  0  0  0  0
 21 25  1  0  0  0  0
 22 21  1  0  0  0  0
 23  4  1  1  0  0  0
 23  7  1  0  0  0  0
 24 39  1  0  0  0  0
 25 31  1  0  0  0  0
 25  8  1  0  0  0  0
 26  9  1  0  0  0  0
 26 27  1  0  0  0  0
 28 11  2  0  0  0  0
 28 36  1  0  0  0  0
 29 28  1  0  0  0  0
 30  6  1  6  0  0  0
 31  5  1  6  0  0  0
 31  1  1  0  0  0  0
 32 33  1  0  0  0  0
 32 43  2  0  0  0  0
 34 41  2  0  0  0  0
 35 19  2  0  0  0  0
 35 34  1  0  0  0  0
 36 17  2  0  0  0  0
 37 36  1  0  0  0  0
 38 24  2  0  0  0  0
 38  2  1  0  0  0  0
 39 30  1  0  0  0  0
 39 21  1  0  0  0  0
 40  1  1  0  0  0  0
 40  9  2  0  0  0  0
 41 43  1  0  0  0  0
 41 42  1  0  0  0  0
 43 44  1  0  0  0  0
M  END
