1,2,3
 OpenBabel05122313063D

 33 33  0  0  1  0  0  0  0  0999 V2000
   -2.4255   -0.3667   -0.1101 Si  0  0  0  0  0  3  0  0  0  0  0  0
    2.4254   -0.3672    0.1101 Si  0  0  0  0  0  3  0  0  0  0  0  0
    0.0002    1.4524   -0.0000 N   0  0  0  0  0  2  0  0  0  0  0  0
   -3.5790   -1.4877    0.8990 C   0  0  0  0  0  0  0  0  0  0  0  0
   -4.6176   -1.0945    0.9182 H   0  0  0  0  0  0  0  0  0  0  0  0
   -3.2233   -1.5900    1.9443 H   0  0  0  0  0  0  0  0  0  0  0  0
   -3.6119   -2.5047    0.4568 H   0  0  0  0  0  0  0  0  0  0  0  0
   -3.2060   -0.1020   -1.8243 C   0  0  0  0  0  0  0  0  0  0  0  0
   -3.2106   -1.0444   -2.4097 H   0  0  0  0  0  0  0  0  0  0  0  0
   -2.6399    0.6512   -2.4094 H   0  0  0  0  0  0  0  0  0  0  0  0
   -4.2565    0.2476   -1.7341 H   0  0  0  0  0  0  0  0  0  0  0  0
   -2.3426    1.3532    0.7767 C   0  0  0  0  0  0  0  0  0  0  0  0
   -3.2549    1.9789    0.6893 H   0  0  0  0  0  0  0  0  0  0  0  0
   -2.2419    1.0966    1.8565 H   0  0  0  0  0  0  0  0  0  0  0  0
   -1.1369    2.1333    0.3564 C   0  0  1  0  0  3  0  0  0  0  0  0
   -1.1529    3.5407    0.3413 C   0  0  0  0  0  0  0  0  0  0  0  0
   -2.0777    4.0614    0.6249 H   0  0  0  0  0  0  0  0  0  0  0  0
    0.0005    4.2510   -0.0000 C   0  0  0  0  0  0  0  0  0  0  0  0
    0.0006    5.3517   -0.0001 H   0  0  0  0  0  0  0  0  0  0  0  0
    1.1536    3.5404   -0.3414 C   0  0  0  0  0  0  0  0  0  0  0  0
    2.0786    4.0609   -0.6250 H   0  0  0  0  0  0  0  0  0  0  0  0
    1.1374    2.1331   -0.3565 C   0  0  0  0  0  0  0  0  0  0  0  0
    2.3429    1.3526   -0.7767 C   0  0  0  0  0  0  0  0  0  0  0  0
    3.2554    1.9782   -0.6893 H   0  0  0  0  0  0  0  0  0  0  0  0
    2.2422    1.0961   -1.8565 H   0  0  0  0  0  0  0  0  0  0  0  0
    3.5786   -1.4885   -0.8990 C   0  0  0  0  0  0  0  0  0  0  0  0
    4.6173   -1.0955   -0.9182 H   0  0  0  0  0  0  0  0  0  0  0  0
    3.2229   -1.5907   -1.9442 H   0  0  0  0  0  0  0  0  0  0  0  0
    3.6113   -2.5055   -0.4567 H   0  0  0  0  0  0  0  0  0  0  0  0
    3.2060   -0.1027    1.8243 C   0  0  0  0  0  0  0  0  0  0  0  0
    3.2104   -1.0450    2.4097 H   0  0  0  0  0  0  0  0  0  0  0  0
    2.6402    0.6507    2.4094 H   0  0  0  0  0  0  0  0  0  0  0  0
    4.2566    0.2467    1.7341 H   0  0  0  0  0  0  0  0  0  0  0  0
  1 12  1  0  0  0  0
  1  4  1  0  0  0  0
  2 30  1  0  0  0  0
  3 15  1  0  0  0  0
  4  5  1  0  0  0  0
  4  6  1  0  0  0  0
  7  4  1  0  0  0  0
  8 11  1  0  0  0  0
  8  1  1  0  0  0  0
  9  8  1  0  0  0  0
 10  8  1  0  0  0  0
 12 14  1  0  0  0  0
 13 12  1  0  0  0  0
 15 12  1  1  0  0  0
 16 15  1  0  0  0  0
 16 17  1  0  0  0  0
 18 16  2  0  0  0  0
 19 18  1  0  0  0  0
 20 18  1  0  0  0  0
 21 20  1  0  0  0  0
 22 20  2  0  0  0  0
 22  3  1  0  0  0  0
 23 24  1  0  0  0  0
 23 22  1  0  0  0  0
 23  2  1  0  0  0  0
 25 23  1  0  0  0  0
 26 29  1  0  0  0  0
 26  2  1  0  0  0  0
 27 26  1  0  0  0  0
 28 26  1  0  0  0  0
 30 32  1  0  0  0  0
 30 31  1  0  0  0  0
 33 30  1  0  0  0  0
M  END
