3,6,14
q = -1.0, confidence = 0.018

 21 22  0  0  1  0  0  0  0  0999 V2000
    2.3286   -0.0000    0.5577 C   0  0  1  0  0  0  0  0  0  0  0  0
    3.4161   -0.0001    0.7356 H   0  0  0  0  0  0  0  0  0  0  0  0
    0.3147    0.0001    1.9045 O   0  5  0  0  0  0  0  0  0  0  0  0
    1.6010    0.0000    1.9719 C   0  0  0  0  0  0  0  0  0  0  0  0
    2.3250    0.0001    2.9576 O   0  0  0  0  0  0  0  0  0  0  0  0
    0.6966   -1.4457   -0.5075 N   0  0  0  0  0  2  0  0  0  0  0  0
    0.6830   -2.6210   -1.1623 C   0  0  0  0  0  3  0  0  0  0  0  0
   -0.2695   -3.0299   -1.5172 H   0  0  0  0  0  0  0  0  0  0  0  0
    1.9930   -1.1926   -0.2061 N   0  0  0  0  0  0  0  0  0  0  0  0
    1.9929   -3.1357   -1.2724 C   0  0  0  0  0  0  0  0  0  0  0  0
    2.3053   -4.0735   -1.7415 H   0  0  0  0  0  0  0  0  0  0  0  0
    2.8079   -2.1928   -0.6489 C   0  0  0  0  0  0  0  0  0  0  0  0
    3.8894   -2.1565   -0.4802 H   0  0  0  0  0  0  0  0  0  0  0  0
    0.6967    1.4456   -0.5076 N   0  0  0  0  0  2  0  0  0  0  0  0
    0.6832    2.6209   -1.1625 C   0  0  0  0  0  3  0  0  0  0  0  0
   -0.2693    3.0298   -1.5174 H   0  0  0  0  0  0  0  0  0  0  0  0
    1.9930    1.1925   -0.2062 N   0  0  0  0  0  0  0  0  0  0  0  0
    1.9930    3.1355   -1.2726 C   0  0  0  0  0  0  0  0  0  0  0  0
    2.3055    4.0732   -1.7417 H   0  0  0  0  0  0  0  0  0  0  0  0
    2.8080    2.1927   -0.6490 C   0  0  0  0  0  0  0  0  0  0  0  0
    3.8895    2.1563   -0.4804 H   0  0  0  0  0  0  0  0  0  0  0  0
  1  2  1  1  0  0  0
  1  4  1  0  0  0  0
  3  4  1  0  0  0  0
  4  5  2  0  0  0  0
  6  9  1  0  0  0  0
  7  6  1  0  0  0  0
  8  7  1  0  0  0  0
  9  1  1  0  0  0  0
 10  7  1  0  0  0  0
 10 12  2  0  0  0  0
 11 10  1  0  0  0  0
 12 13  1  0  0  0  0
 12  9  1  0  0  0  0
 14 17  1  0  0  0  0
 15 14  1  0  0  0  0
 16 15  1  0  0  0  0
 17  1  1  0  0  0  0
 18 15  1  0  0  0  0
 18 20  2  0  0  0  0
 19 18  1  0  0  0  0
 20 21  1  0  0  0  0
 20 17  1  0  0  0  0
M  CHG  1   3  -1
M  END
