3,4,5
q = -1.0, confidence = 0.018

 42 43  0  0  0  0  0  0  0  0999 V2000
    7.2406   -1.2553   -0.7416 Br  0  0  0  0  0  0  0  0  0  0  0  0
    3.7640    2.5623    1.6729 Br  0  0  0  0  0  0  0  0  0  0  0  0
    1.6600    0.8867    0.2739 O   0  5  0  0  0  0  0  0  0  0  0  0
    0.7268   -1.0131   -1.4767 N   0  0  0  0  0  2  0  0  0  0  0  0
   -0.6008    1.4350   -1.3049 N   0  0  0  0  0  0  0  0  0  0  0  0
   -1.6174    1.4039   -1.1194 H   0  0  0  0  0  0  0  0  0  0  0  0
    3.0820   -0.7089   -0.8620 C   0  0  0  0  0  0  0  0  0  0  0  0
    2.8439    0.4058    0.0170 C   0  0  0  0  0  0  0  0  0  0  0  0
    4.0060    1.0220    0.5873 C   0  0  0  0  0  0  0  0  0  0  0  0
    5.2916    0.5329    0.3656 C   0  0  0  0  0  0  0  0  0  0  0  0
    6.1527    1.0269    0.8367 H   0  0  0  0  0  0  0  0  0  0  0  0
    5.4865   -0.5951   -0.4662 C   0  0  0  0  0  0  0  0  0  0  0  0
    4.3979   -1.1955   -1.0899 C   0  0  0  0  0  0  0  0  0  0  0  0
    4.5496   -2.0448   -1.7720 H   0  0  0  0  0  0  0  0  0  0  0  0
    2.0001   -1.2461   -1.6455 C   0  0  0  0  0  3  0  0  0  0  0  0
    2.2914   -1.8882   -2.5011 H   0  0  0  0  0  0  0  0  0  0  0  0
   -0.2090   -1.4661   -2.5086 C   0  0  0  0  0  0  0  0  0  0  0  0
    0.3677   -1.9831   -3.3032 H   0  0  0  0  0  0  0  0  0  0  0  0
   -0.9167   -2.1918   -2.0636 H   0  0  0  0  0  0  0  0  0  0  0  0
   -1.0077   -0.2780   -3.0971 C   0  0  0  0  0  0  0  0  0  0  0  0
   -1.0166   -0.3594   -4.2019 H   0  0  0  0  0  0  0  0  0  0  0  0
   -2.0669   -0.3388   -2.7771 H   0  0  0  0  0  0  0  0  0  0  0  0
   -0.4311    1.0876   -2.7406 C   0  0  0  0  0  0  0  0  0  0  0  0
   -0.9251    1.8697   -3.3559 H   0  0  0  0  0  0  0  0  0  0  0  0
    0.6493    1.1269   -2.9745 H   0  0  0  0  0  0  0  0  0  0  0  0
   -0.1724    2.8405   -0.9605 C   0  0  0  0  0  0  0  0  0  0  0  0
    0.0560    2.8220    0.1216 H   0  0  0  0  0  0  0  0  0  0  0  0
   -1.3308    3.8269   -1.1781 C   0  0  0  0  0  0  0  0  0  0  0  0
   -1.5908    3.8673   -2.2597 H   0  0  0  0  0  0  0  0  0  0  0  0
   -2.2380    3.4685   -0.6426 H   0  0  0  0  0  0  0  0  0  0  0  0
   -0.9436    5.2296   -0.6875 C   0  0  0  0  0  0  0  0  0  0  0  0
   -0.8107    5.1988    0.4172 H   0  0  0  0  0  0  0  0  0  0  0  0
   -1.7739    5.9385   -0.8817 H   0  0  0  0  0  0  0  0  0  0  0  0
    0.3552    5.7177   -1.3410 C   0  0  0  0  0  0  0  0  0  0  0  0
    0.6432    6.7058   -0.9280 H   0  0  0  0  0  0  0  0  0  0  0  0
    0.1810    5.8744   -2.4289 H   0  0  0  0  0  0  0  0  0  0  0  0
    1.4920    4.7060   -1.1529 C   0  0  0  0  0  0  0  0  0  0  0  0
    2.4102    5.0487   -1.6712 H   0  0  0  0  0  0  0  0  0  0  0  0
    1.7568    4.6284   -0.0750 H   0  0  0  0  0  0  0  0  0  0  0  0
    1.0985    3.3149   -1.6717 C   0  0  0  0  0  0  0  0  0  0  0  0
    1.9220    2.5943   -1.5050 H   0  0  0  0  0  0  0  0  0  0  0  0
    0.9240    3.3819   -2.7669 H   0  0  0  0  0  0  0  0  0  0  0  0
  1 12  1  0  0  0  0
  5  6  1  0  0  0  0
  5 26  1  0  0  0  0
  7  8  1  0  0  0  0
  8  3  1  0  0  0  0
  8  9  2  0  0  0  0
  9  2  1  0  0  0  0
 10  9  1  0  0  0  0
 10 11  1  0  0  0  0
 12 10  2  0  0  0  0
 13  7  2  0  0  0  0
 13 12  1  0  0  0  0
 14 13  1  0  0  0  0
 15  4  1  0  0  0  0
 15  7  1  0  0  0  0
 16 15  1  0  0  0  0
 17 19  1  0  0  0  0
 17  4  1  0  0  0  0
 18 17  1  0  0  0  0
 20 22  1  0  0  0  0
 20 23  1  0  0  0  0
 20 17  1  0  0  0  0
 21 20  1  0  0  0  0
 23  5  1  0  0  0  0
 24 23  1  0  0  0  0
 25 23  1  0  0  0  0
 26 27  1  0  0  0  0
 28 26  1  0  0  0  0
 28 31  1  0  0  0  0
 28 30  1  0  0  0  0
 29 28  1  0  0  0  0
 31 32  1  0  0  0  0
 33 31  1  0  0  0  0
 34 37  1  0  0  0  0
 34 35  1  0  0  0  0
 34 31  1  0  0  0  0
 36 34  1  0  0  0  0
 37 39  1  0  0  0  0
 38 37  1  0  0  0  0
 40 41  1  0  0  0  0
 40 37  1  0  0  0  0
 40 26  1  0  0  0  0
 42 40  1  0  0  0  0
M  CHG  1   3  -1
M  END
