3,4,5
q = -1.0, confidence = 0.2

 35 35  0  0  1  0  0  0  0  0999 V2000
   -1.8322    2.9280   -0.0531 Br  0  0  0  0  0  0  0  0  0  0  0  0
   -5.3312   -1.5757    0.0623 Br  0  0  0  0  0  0  0  0  0  0  0  0
    0.2576    0.7711   -0.1451 O   0  0  0  0  0  1  0  0  0  0  0  0
    1.2214   -1.7762   -0.1376 N   0  0  0  0  0  2  0  0  0  0  0  0
    3.7087   -0.8818    0.1197 N   0  0  0  0  0  0  0  0  0  0  0  0
   -1.1470   -1.2095   -0.0878 C   0  0  0  0  0  0  0  0  0  0  0  0
   -0.9129    0.2162   -0.0932 C   0  0  2  0  0  3  0  0  0  0  0  0
   -2.0848    1.0533   -0.0477 C   0  0  0  0  0  0  0  0  0  0  0  0
   -3.3715    0.5254   -0.0013 C   0  0  0  0  0  0  0  0  0  0  0  0
   -4.2363    1.2015    0.0329 H   0  0  0  0  0  0  0  0  0  0  0  0
   -3.5593   -0.8778    0.0002 C   0  0  0  0  0  0  0  0  0  0  0  0
   -2.4699   -1.7345   -0.0433 C   0  0  0  0  0  0  0  0  0  0  0  0
   -2.6174   -2.8244   -0.0432 H   0  0  0  0  0  0  0  0  0  0  0  0
   -0.0472   -2.1220   -0.1419 C   0  0  0  0  0  0  0  0  0  0  0  0
   -0.2909   -3.2020   -0.1949 H   0  0  0  0  0  0  0  0  0  0  0  0
    2.2490   -2.8049   -0.2819 C   0  0  0  0  0  0  0  0  0  0  0  0
    2.4800   -2.9512   -1.3611 H   0  0  0  0  0  0  0  0  0  0  0  0
    1.9112   -3.7881    0.1123 H   0  0  0  0  0  0  0  0  0  0  0  0
    3.4702   -2.3083    0.4707 C   0  0  0  0  0  0  0  0  0  0  0  0
    4.3695   -2.9286    0.2679 H   0  0  0  0  0  0  0  0  0  0  0  0
    3.2670   -2.3536    1.5569 H   0  0  0  0  0  0  0  0  0  0  0  0
    4.3475   -0.7177   -1.2250 C   0  0  0  0  0  0  0  0  0  0  0  0
    4.2933    0.3687   -1.4369 H   0  0  0  0  0  0  0  0  0  0  0  0
    3.6860   -1.2156   -1.9622 H   0  0  0  0  0  0  0  0  0  0  0  0
    5.7783   -1.2342   -1.3670 C   0  0  0  0  0  0  0  0  0  0  0  0
    6.4889   -0.6911   -0.7138 H   0  0  0  0  0  0  0  0  0  0  0  0
    6.1099   -1.0761   -2.4122 H   0  0  0  0  0  0  0  0  0  0  0  0
    5.8744   -2.3191   -1.1570 H   0  0  0  0  0  0  0  0  0  0  0  0
    4.5029   -0.1904    1.1814 C   0  0  0  0  0  0  0  0  0  0  0  0
    4.7892    0.7884    0.7526 H   0  0  0  0  0  0  0  0  0  0  0  0
    5.4280   -0.7790    1.3720 H   0  0  0  0  0  0  0  0  0  0  0  0
    3.7343    0.0470    2.4736 C   0  0  0  0  0  0  0  0  0  0  0  0
    2.8639    0.7054    2.2853 H   0  0  0  0  0  0  0  0  0  0  0  0
    4.3988    0.5518    3.2029 H   0  0  0  0  0  0  0  0  0  0  0  0
    3.3772   -0.8875    2.9513 H   0  0  0  0  0  0  0  0  0  0  0  0
  1  8  1  0  0  0  0
  5 19  1  0  0  0  0
  5 29  1  0  0  0  0
  6 12  1  0  0  0  0
  7  3  1  6  0  0  0
  7  6  1  0  0  0  0
  7  8  1  0  0  0  0
  8  9  2  0  0  0  0
  9 11  1  0  0  0  0
  9 10  1  0  0  0  0
 11  2  1  0  0  0  0
 12 13  1  0  0  0  0
 12 11  2  0  0  0  0
 14  4  1  0  0  0  0
 14  6  2  0  0  0  0
 15 14  1  0  0  0  0
 16  4  1  0  0  0  0
 16 18  1  0  0  0  0
 16 19  1  0  0  0  0
 17 16  1  0  0  0  0
 19 21  1  0  0  0  0
 20 19  1  0  0  0  0
 22  5  1  0  0  0  0
 23 22  1  0  0  0  0
 24 22  1  0  0  0  0
 25 22  1  0  0  0  0
 25 28  1  0  0  0  0
 25 26  1  0  0  0  0
 27 25  1  0  0  0  0
 29 31  1  0  0  0  0
 29 32  1  0  0  0  0
 30 29  1  0  0  0  0
 32 35  1  0  0  0  0
 32 34  1  0  0  0  0
 33 32  1  0  0  0  0
M  END
