1,2,5
q = -1.0, confidence = 0.024

 26 26  0  0  1  0  0  0  0  0999 V2000
    0.1479    1.3291   -0.5458 N   0  0  0  0  0  2  0  0  0  0  0  0
    2.7642    0.8138   -0.3778 N   0  0  0  0  0  0  0  0  0  0  0  0
    3.0287    1.1888    0.5524 H   0  0  0  0  0  0  0  0  0  0  0  0
    3.5717    0.2972   -0.7555 H   0  0  0  0  0  0  0  0  0  0  0  0
   -0.4108   -1.0661    0.7543 O   0  5  0  0  0  0  0  0  0  0  0  0
   -2.0641    0.3415   -0.3708 C   0  0  0  0  0  0  0  0  0  0  0  0
   -1.6320   -0.8561    0.3095 C   0  0  0  0  0  0  0  0  0  0  0  0
   -2.5902   -1.8816    0.5597 C   0  0  0  0  0  0  0  0  0  0  0  0
   -2.2452   -2.7670    1.1131 H   0  0  0  0  0  0  0  0  0  0  0  0
   -3.9077   -1.7625    0.1342 C   0  0  0  0  0  0  0  0  0  0  0  0
   -4.6206   -2.5745    0.3436 H   0  0  0  0  0  0  0  0  0  0  0  0
   -4.3321   -0.6102   -0.5649 C   0  0  0  0  0  0  0  0  0  0  0  0
   -5.3681   -0.5217   -0.9199 H   0  0  0  0  0  0  0  0  0  0  0  0
   -3.4255    0.4163   -0.7936 C   0  0  0  0  0  0  0  0  0  0  0  0
   -3.7690    1.3031   -1.3430 H   0  0  0  0  0  0  0  0  0  0  0  0
   -1.1655    1.4650   -0.6041 C   0  0  1  0  0  3  0  0  0  0  0  0
   -1.7398    2.8322   -0.8969 C   0  0  0  0  0  0  0  0  0  0  0  0
   -1.2845    3.5807   -0.2186 H   0  0  0  0  0  0  0  0  0  0  0  0
   -2.8275    2.8667   -0.7327 H   0  0  0  0  0  0  0  0  0  0  0  0
   -1.5361    3.1549   -1.9393 H   0  0  0  0  0  0  0  0  0  0  0  0
    1.0435    2.4667   -0.7744 C   0  0  0  0  0  0  0  0  0  0  0  0
    1.1930    3.0220    0.1797 H   0  0  0  0  0  0  0  0  0  0  0  0
    0.6345    3.1851   -1.5112 H   0  0  0  0  0  0  0  0  0  0  0  0
    2.3711    1.9206   -1.2777 C   0  0  0  0  0  0  0  0  0  0  0  0
    2.2513    1.5102   -2.3017 H   0  0  0  0  0  0  0  0  0  0  0  0
    3.1428    2.7172   -1.3246 H   0  0  0  0  0  0  0  0  0  0  0  0
  2  3  1  0  0  0  0
  4  2  1  0  0  0  0
  6  7  1  0  0  0  0
  7  8  2  0  0  0  0
  7  5  1  0  0  0  0
  8  9  1  0  0  0  0
 10 11  1  0  0  0  0
 10  8  1  0  0  0  0
 12 10  2  0  0  0  0
 13 12  1  0  0  0  0
 14 12  1  0  0  0  0
 14  6  2  0  0  0  0
 15 14  1  0  0  0  0
 16  1  1  1  0  0  0
 16  6  1  0  0  0  0
 17 19  1  0  0  0  0
 17 16  1  0  0  0  0
 17 18  1  0  0  0  0
 20 17  1  0  0  0  0
 21  1  1  0  0  0  0
 21 22  1  0  0  0  0
 23 21  1  0  0  0  0
 24 21  1  0  0  0  0
 24  2  1  0  0  0  0
 25 24  1  0  0  0  0
 26 24  1  0  0  0  0
M  CHG  1   5  -1
M  END
