4,8,9
q = -1.0, confidence = 0.01

 22 21  0  0  1  0  0  0  0  0999 V2000
   -1.4955   -1.4534   -1.8489 C   0  0  0  0  0  0  0  0  0  0  0  0
   -0.9414   -1.4478   -2.8111 H   0  0  0  0  0  0  0  0  0  0  0  0
   -2.5187   -1.8179   -2.0738 H   0  0  0  0  0  0  0  0  0  0  0  0
   -0.0145   -1.9089   -0.0125 O   0  5  0  0  0  0  0  0  0  0  0  0
   -1.1919   -0.1095    2.6037 O   0  0  0  0  0  0  0  0  0  0  0  0
   -0.0022    0.0004    2.7159 H   0  0  0  0  0  0  0  0  0  0  0  0
   -2.6318    0.0436    0.8741 C   0  0  2  0  0  3  0  0  0  0  0  0
   -1.4040   -0.0034    1.3198 N   0  0  0  0  0  2  0  0  0  0  0  0
   -1.5061   -0.0815   -1.2918 N   0  0  0  0  0  0  0  0  0  0  0  0
   -1.3487    0.6064   -2.0393 H   0  0  0  0  0  0  0  0  0  0  0  0
   -0.8931   -3.6651   -1.1185 O   0  0  0  0  0  0  0  0  0  0  0  0
   -3.0945    1.7878   -0.8731 C   0  0  0  0  0  0  0  0  0  0  0  0
   -4.0210    2.0802   -0.3424 H   0  0  0  0  0  0  0  0  0  0  0  0
   -3.2589    1.9661   -1.9568 H   0  0  0  0  0  0  0  0  0  0  0  0
   -2.2623    2.4225   -0.5097 H   0  0  0  0  0  0  0  0  0  0  0  0
   -0.7787   -2.4639   -0.9214 C   0  0  0  0  0  0  0  0  0  0  0  0
   -2.7763    0.3113   -0.5998 C   0  0  2  0  0  0  0  0  0  0  0  0
   -3.6019   -0.3176   -1.0068 H   0  0  0  0  0  0  0  0  0  0  0  0
   -3.7951   -0.0018    1.8090 C   0  0  0  0  0  0  0  0  0  0  0  0
   -3.6971   -0.8691    2.4936 H   0  0  0  0  0  0  0  0  0  0  0  0
   -4.7539   -0.0721    1.2616 H   0  0  0  0  0  0  0  0  0  0  0  0
   -3.8164    0.9010    2.4570 H   0  0  0  0  0  0  0  0  0  0  0  0
  1  9  1  0  0  0  0
  1 16  1  0  0  0  0
  2  1  1  0  0  0  0
  3  1  1  0  0  0  0
  5  6  1  0  0  0  0
  7  8  1  1  0  0  0
  7 19  1  0  0  0  0
  8  5  1  0  0  0  0
  9 17  1  0  0  0  0
 10  9  1  0  0  0  0
 11 16  2  0  0  0  0
 12 17  1  0  0  0  0
 12 15  1  0  0  0  0
 12 13  1  0  0  0  0
 14 12  1  0  0  0  0
 16  4  1  0  0  0  0
 17 18  1  6  0  0  0
 17  7  1  0  0  0  0
 19 22  1  0  0  0  0
 19 20  1  0  0  0  0
 21 19  1  0  0  0  0
M  CHG  1   4  -1
M  END
