1,2,4
q = -2.0, confidence = 0.802

 19 18  0  0  0  0  0  0  0  0999 V2000
   -0.3305   -1.6011    0.4874 N   0  0  0  0  0  2  0  0  0  0  0  0
   -1.7886    0.2069   -0.5642 N   0  0  0  0  0  2  0  0  0  0  0  0
    0.5393   -2.3791    0.9097 O   0  0  0  0  0  1  0  0  0  0  0  0
   -0.0274    2.0919   -0.5218 O   0  5  0  0  0  0  0  0  0  0  0  0
   -1.4140    3.6885   -1.2824 O   0  0  0  0  0  0  0  0  0  0  0  0
   -1.6260   -1.9664    0.2784 C   0  0  0  0  0  0  0  0  0  0  0  0
   -2.4376   -0.9011   -0.2355 C   0  0  0  0  0  0  0  0  0  0  0  0
   -2.0840   -3.3522    0.6085 C   0  0  0  0  0  0  0  0  0  0  0  0
   -2.6605   -3.8101   -0.2208 H   0  0  0  0  0  0  0  0  0  0  0  0
   -2.7237   -3.3721    1.5165 H   0  0  0  0  0  0  0  0  0  0  0  0
   -1.1929   -3.9753    0.8103 H   0  0  0  0  0  0  0  0  0  0  0  0
   -3.9294   -0.9998   -0.3466 C   0  0  0  0  0  0  0  0  0  0  0  0
   -4.2964   -0.5341   -1.2822 H   0  0  0  0  0  0  0  0  0  0  0  0
   -4.3961   -0.4424    0.4946 H   0  0  0  0  0  0  0  0  0  0  0  0
   -4.2831   -2.0449   -0.2978 H   0  0  0  0  0  0  0  0  0  0  0  0
   -2.3571    1.5169   -0.7954 C   0  0  0  0  0  0  0  0  0  0  0  0
   -3.0107    1.8241    0.0519 H   0  0  0  0  0  0  0  0  0  0  0  0
   -2.9726    1.5724   -1.7203 H   0  0  0  0  0  0  0  0  0  0  0  0
   -1.1999    2.5491   -0.8953 C   0  0  0  0  0  0  0  0  0  0  0  0
  1  3  1  0  0  0  0
  2  7  1  0  0  0  0
  5 19  2  0  0  0  0
  6  1  1  0  0  0  0
  6  8  1  0  0  0  0
  7  6  2  0  0  0  0
  8 11  1  0  0  0  0
  8 10  1  0  0  0  0
  9  8  1  0  0  0  0
 12 15  1  0  0  0  0
 12  7  1  0  0  0  0
 12 14  1  0  0  0  0
 13 12  1  0  0  0  0
 16  2  1  0  0  0  0
 16 17  1  0  0  0  0
 18 16  1  0  0  0  0
 19 16  1  0  0  0  0
 19  4  1  0  0  0  0
M  CHG  1   4  -1
M  END
