1,2,3
q = -1.0, confidence = 0.052

 38 40  0  0  1  0  0  0  0  0999 V2000
   -0.6352   -1.6460   -0.0419 O   0  5  0  0  0  0  0  0  0  0  0  0
   -4.2087    0.0729    0.0203 N   0  0  0  0  0  2  0  0  0  0  0  0
   -1.7176    0.5447   -0.0257 N   0  0  0  0  0  2  0  0  0  0  0  0
   -0.3682    0.6505   -0.0148 N   0  0  0  0  0  0  0  0  0  0  0  0
    2.4561    0.2064   -0.0101 N   0  0  0  0  0  0  0  0  0  0  0  0
    3.6716   -0.3856   -0.0063 N   0  0  0  0  0  0  0  0  0  0  0  0
    6.0105   -0.1544    0.0200 N   0  0  0  0  0  0  0  0  0  0  0  0
   -1.8720    2.8841   -0.0128 N   0  0  0  0  0  0  0  0  0  0  0  0
   -5.4931   -0.3074    0.0186 C   0  0  0  0  0  3  0  0  0  0  0  0
   -5.6672   -1.3940    0.0301 H   0  0  0  0  0  0  0  0  0  0  0  0
   -6.5428    0.6247   -0.0013 C   0  0  0  0  0  0  0  0  0  0  0  0
   -7.5844    0.2754    0.0020 H   0  0  0  0  0  0  0  0  0  0  0  0
   -6.2276    1.9909   -0.0341 C   0  0  0  0  0  0  0  0  0  0  0  0
   -7.0257    2.7478   -0.0627 H   0  0  0  0  0  0  0  0  0  0  0  0
   -4.8837    2.3868   -0.0389 C   0  0  0  0  0  0  0  0  0  0  0  0
   -4.6103    3.4502   -0.0890 H   0  0  0  0  0  0  0  0  0  0  0  0
   -3.8856    1.3959   -0.0013 C   0  0  0  0  0  0  0  0  0  0  0  0
   -2.4412    1.6476    0.0067 C   0  0  1  0  0  3  0  0  0  0  0  0
    0.1249   -0.5933   -0.0251 C   0  0  0  0  0  0  0  0  0  0  0  0
    1.5776   -0.8049   -0.0187 C   0  0  0  0  0  0  0  0  0  0  0  0
    2.2383   -2.0679   -0.0203 C   0  0  0  0  0  0  0  0  0  0  0  0
    1.7668   -3.0551   -0.0267 H   0  0  0  0  0  0  0  0  0  0  0  0
    3.5955   -1.7824   -0.0124 C   0  0  0  0  0  0  0  0  0  0  0  0
    4.8194    0.4504   -0.0001 C   0  0  0  0  0  0  0  0  0  0  0  0
    7.1081    0.6175    0.0259 C   0  0  0  0  0  0  0  0  0  0  0  0
    8.0751    0.0843    0.0422 H   0  0  0  0  0  0  0  0  0  0  0  0
    7.0680    2.0180    0.0128 C   0  0  0  0  0  0  0  0  0  0  0  0
    7.9977    2.6050    0.0186 H   0  0  0  0  0  0  0  0  0  0  0  0
    5.8065    2.6390   -0.0083 C   0  0  0  0  0  0  0  0  0  0  0  0
    5.7227    3.7364   -0.0199 H   0  0  0  0  0  0  0  0  0  0  0  0
    4.6520    1.8537   -0.0153 C   0  0  0  0  0  0  0  0  0  0  0  0
    3.6383    2.2721   -0.0322 H   0  0  0  0  0  0  0  0  0  0  0  0
    4.7479   -2.7304   -0.0116 C   0  0  0  0  0  0  0  0  0  0  0  0
    4.3551   -3.7649   -0.0230 H   0  0  0  0  0  0  0  0  0  0  0  0
    5.3931   -2.5954    0.8776 H   0  0  0  0  0  0  0  0  0  0  0  0
    5.4060   -2.5813   -0.8891 H   0  0  0  0  0  0  0  0  0  0  0  0
   -0.8504    2.8422    0.0973 H   0  0  0  0  0  0  0  0  0  0  0  0
   -2.3610    3.6763    0.3999 H   0  0  0  0  0  0  0  0  0  0  0  0
  1 19  1  0  0  0  0
  3  4  1  0  0  0  0
  5  6  1  0  0  0  0
  6 24  1  0  0  0  0
  7 25  1  0  0  0  0
  8 18  1  0  0  0  0
  8 37  1  0  0  0  0
  8 38  1  0  0  0  0
  9  2  1  0  0  0  0
  9 10  1  0  0  0  0
 11 12  1  0  0  0  0
 11  9  1  0  0  0  0
 13 11  2  0  0  0  0
 14 13  1  0  0  0  0
 15 13  1  0  0  0  0
 15 17  2  0  0  0  0
 16 15  1  0  0  0  0
 17 18  1  0  0  0  0
 17  2  1  0  0  0  0
 18  3  1  6  0  0  0
 19 20  1  0  0  0  0
 19  4  2  0  0  0  0
 20  5  2  0  0  0  0
 21 20  1  0  0  0  0
 21 23  2  0  0  0  0
 22 21  1  0  0  0  0
 23 33  1  0  0  0  0
 23  6  1  0  0  0  0
 24  7  2  0  0  0  0
 25 26  1  0  0  0  0
 27 28  1  0  0  0  0
 27 25  2  0  0  0  0
 29 27  1  0  0  0  0
 30 29  1  0  0  0  0
 31 29  2  0  0  0  0
 31 24  1  0  0  0  0
 32 31  1  0  0  0  0
 33 35  1  0  0  0  0
 34 33  1  0  0  0  0
 36 33  1  0  0  0  0
M  CHG  1   1  -1
M  END
