23,24,27
q = -1.0, confidence = 0.024

 29 29  0  0  0  0  0  0  0  0999 V2000
   -4.8882   -0.1143   -1.4210 C   0  0  0  0  0  0  0  0  0  0  0  0
   -3.6953    0.6503   -1.1933 C   0  0  0  0  0  0  0  0  0  0  0  0
   -3.6989    2.0430   -1.4464 C   0  0  0  0  0  0  0  0  0  0  0  0
   -2.7634    2.5923   -1.2657 H   0  0  0  0  0  0  0  0  0  0  0  0
   -4.8437    2.6869   -1.9113 C   0  0  0  0  0  0  0  0  0  0  0  0
   -4.8338    3.7690   -2.1063 H   0  0  0  0  0  0  0  0  0  0  0  0
   -6.0166    1.9320   -2.1321 C   0  0  0  0  0  0  0  0  0  0  0  0
   -6.9272    2.4301   -2.5000 H   0  0  0  0  0  0  0  0  0  0  0  0
   -6.0413    0.5579   -1.8928 C   0  0  0  0  0  0  0  0  0  0  0  0
   -6.9476   -0.0407   -2.0631 H   0  0  0  0  0  0  0  0  0  0  0  0
   -2.4773    0.0134   -0.6909 C   0  0  0  0  0  0  0  0  0  0  0  0
   -1.0476   -2.9473    0.4449 C   0  0  0  0  0  0  0  0  0  0  0  0
    0.3024   -3.0350    0.9758 C   0  0  0  0  0  0  0  0  0  0  0  0
    1.0063   -4.2746    1.4206 C   0  0  0  0  0  0  0  0  0  0  0  0
    0.3747   -5.1714    1.2960 H   0  0  0  0  0  0  0  0  0  0  0  0
    1.3114   -4.1921    2.4840 H   0  0  0  0  0  0  0  0  0  0  0  0
    1.9415   -4.4083    0.8385 H   0  0  0  0  0  0  0  0  0  0  0  0
   -2.0601   -4.0435    0.3745 C   0  0  0  0  0  0  0  0  0  0  0  0
   -2.3336   -4.2628   -0.6793 H   0  0  0  0  0  0  0  0  0  0  0  0
   -2.9988   -3.7390    0.8835 H   0  0  0  0  0  0  0  0  0  0  0  0
   -1.6935   -4.9748    0.8417 H   0  0  0  0  0  0  0  0  0  0  0  0
   -2.5154   -1.3187   -0.4515 N   0  0  0  0  0  0  0  0  0  0  0  0
   -1.3214   -1.7115    0.0350 N   0  0  0  0  0  2  0  0  0  0  0  0
    0.9026   -1.8517    1.0281 N   0  0  0  0  0  2  0  0  0  0  0  0
   -4.9595   -1.4316   -1.2065 O   0  0  0  0  0  0  0  0  0  0  0  0
   -4.0388   -1.7195   -0.8786 H   0  0  0  0  0  0  0  0  0  0  0  0
   -1.4081    0.7086   -0.4718 O   0  5  0  0  0  0  0  0  0  0  0  0
    2.1976   -1.8528    1.4431 O   0  0  0  0  0  0  0  0  0  0  0  0
    2.4959   -0.9013    1.3273 H   0  0  0  0  0  0  0  0  0  0  0  0
  1 25  1  0  0  0  0
  1  2  1  0  0  0  0
  2 11  1  0  0  0  0
  3  4  1  0  0  0  0
  3  2  2  0  0  0  0
  5  3  1  0  0  0  0
  6  5  1  0  0  0  0
  7  5  2  0  0  0  0
  7  9  1  0  0  0  0
  8  7  1  0  0  0  0
  9  1  2  0  0  0  0
 10  9  1  0  0  0  0
 11 27  1  0  0  0  0
 11 22  2  0  0  0  0
 12 13  2  0  0  0  0
 13 24  1  0  0  0  0
 13 14  1  0  0  0  0
 14 16  1  0  0  0  0
 15 14  1  0  0  0  0
 17 14  1  0  0  0  0
 18 12  1  0  0  0  0
 18 21  1  0  0  0  0
 18 20  1  0  0  0  0
 19 18  1  0  0  0  0
 22 23  1  0  0  0  0
 23 12  1  0  0  0  0
 24 28  1  0  0  0  0
 25 26  1  0  0  0  0
 29 28  1  0  0  0  0
M  CHG  1  27  -1
M  END
