2,3,4
q = -1.0, confidence = 0.0

 34 35  0  0  0  0  0  0  0  0999 V2000
    5.9358   -0.6355    0.0037 Br  0  0  0  0  0  0  0  0  0  0  0  0
   -0.6202   -0.9599    0.0924 N   0  0  0  0  0  2  0  0  0  0  0  0
   -3.2528   -0.2950    0.1408 N   0  0  0  0  0  0  0  0  0  0  0  0
    0.3154    1.5840   -0.3025 O   0  5  0  0  0  0  0  0  0  0  0  0
   -6.0530   -0.4724   -0.6528 O   0  0  0  0  0  0  0  0  0  0  0  0
    1.7453   -0.3253   -0.0100 C   0  0  0  0  0  0  0  0  0  0  0  0
    1.5103    1.0803   -0.2232 C   0  0  0  0  0  0  0  0  0  0  0  0
    2.6496    1.9273   -0.3706 C   0  0  0  0  0  0  0  0  0  0  0  0
    2.4678    2.9985   -0.5365 H   0  0  0  0  0  0  0  0  0  0  0  0
    3.9411    1.4187   -0.3018 C   0  0  0  0  0  0  0  0  0  0  0  0
    4.8058    2.0891   -0.4129 H   0  0  0  0  0  0  0  0  0  0  0  0
    4.1558    0.0340   -0.0873 C   0  0  0  0  0  0  0  0  0  0  0  0
    3.0755   -0.8263    0.0545 C   0  0  0  0  0  0  0  0  0  0  0  0
    3.2395   -1.9022    0.2178 H   0  0  0  0  0  0  0  0  0  0  0  0
    0.6558   -1.2466    0.1238 C   0  0  0  0  0  3  0  0  0  0  0  0
    0.9469   -2.3103    0.2703 H   0  0  0  0  0  0  0  0  0  0  0  0
   -1.5651   -2.0604    0.2589 C   0  0  0  0  0  0  0  0  0  0  0  0
   -1.1486   -2.8708    0.8961 H   0  0  0  0  0  0  0  0  0  0  0  0
   -1.7828   -2.5184   -0.7323 H   0  0  0  0  0  0  0  0  0  0  0  0
   -2.8401   -1.5094    0.8791 C   0  0  0  0  0  0  0  0  0  0  0  0
   -3.6300   -2.2911    0.9028 H   0  0  0  0  0  0  0  0  0  0  0  0
   -2.6383   -1.1886    1.9208 H   0  0  0  0  0  0  0  0  0  0  0  0
   -3.6953   -0.5533   -1.2612 C   0  0  0  0  0  0  0  0  0  0  0  0
   -2.9304   -1.1519   -1.7941 H   0  0  0  0  0  0  0  0  0  0  0  0
   -3.7325    0.4412   -1.7479 H   0  0  0  0  0  0  0  0  0  0  0  0
   -5.0646   -1.2300   -1.3243 C   0  0  0  0  0  0  0  0  0  0  0  0
   -5.3824   -1.3158   -2.3829 H   0  0  0  0  0  0  0  0  0  0  0  0
   -5.0173   -2.2697   -0.9081 H   0  0  0  0  0  0  0  0  0  0  0  0
   -5.6956   -0.2605    0.7046 C   0  0  0  0  0  0  0  0  0  0  0  0
   -5.6928   -1.2322    1.2614 H   0  0  0  0  0  0  0  0  0  0  0  0
   -6.4873    0.3723    1.1529 H   0  0  0  0  0  0  0  0  0  0  0  0
   -4.3500    0.4494    0.8297 C   0  0  0  0  0  0  0  0  0  0  0  0
   -4.3953    1.4425    0.3414 H   0  0  0  0  0  0  0  0  0  0  0  0
   -4.0497    0.6108    1.8826 H   0  0  0  0  0  0  0  0  0  0  0  0
  2 15  1  0  0  0  0
  2 17  1  0  0  0  0
  3 32  1  0  0  0  0
  3 20  1  0  0  0  0
  4  7  1  0  0  0  0
  5 29  1  0  0  0  0
  6 13  1  0  0  0  0
  6 15  1  0  0  0  0
  7  6  2  0  0  0  0
  8 10  2  0  0  0  0
  8  7  1  0  0  0  0
  9  8  1  0  0  0  0
 10 12  1  0  0  0  0
 11 10  1  0  0  0  0
 12  1  1  0  0  0  0
 12 13  2  0  0  0  0
 13 14  1  0  0  0  0
 15 16  1  0  0  0  0
 17 20  1  0  0  0  0
 17 18  1  0  0  0  0
 19 17  1  0  0  0  0
 20 21  1  0  0  0  0
 20 22  1  0  0  0  0
 23  3  1  0  0  0  0
 24 23  1  0  0  0  0
 25 23  1  0  0  0  0
 26 23  1  0  0  0  0
 26 28  1  0  0  0  0
 26  5  1  0  0  0  0
 27 26  1  0  0  0  0
 29 32  1  0  0  0  0
 29 31  1  0  0  0  0
 29 30  1  0  0  0  0
 32 34  1  0  0  0  0
 33 32  1  0  0  0  0
M  CHG  1   4  -1
M  END
