4,5,6
q = 0.0, confidence = 0.998

 27 28  0  0  1  0  0  0  0  0999 V2000
   -2.9777   -1.5298   -0.8138 C   0  0  1  0  0  3  0  0  0  0  0  0
    2.8055   -2.6200   -0.0201 C   0  0  0  0  0  0  0  0  0  0  0  0
    2.4921   -3.6755    0.0054 H   0  0  0  0  0  0  0  0  0  0  0  0
    1.3060    0.7619   -0.3168 N   0  0  0  0  0  2  0  0  0  0  0  0
   -0.6145   -1.4862   -0.6071 N   0  0  0  0  0  2  0  0  0  0  0  0
   -3.0601   -0.3021   -0.8251 O   0  0  0  0  0  1  0  0  0  0  0  0
    0.4664   -2.1580   -0.3632 C   0  0  0  0  0  3  0  0  0  0  0  0
    0.3974   -3.2670   -0.2766 H   0  0  0  0  0  0  0  0  0  0  0  0
    2.2214   -0.2476   -0.2108 C   0  0  1  0  0  3  0  0  0  0  0  0
   -1.7596   -2.1849   -0.7328 N   0  0  0  0  0  0  0  0  0  0  0  0
   -1.7439   -3.2078   -0.6089 H   0  0  0  0  0  0  0  0  0  0  0  0
    1.8154   -1.6375   -0.1916 C   0  0  0  0  0  0  0  0  0  0  0  0
    4.1764   -2.3139    0.1052 C   0  0  0  0  0  0  0  0  0  0  0  0
    4.9072   -3.1246    0.2395 H   0  0  0  0  0  0  0  0  0  0  0  0
    3.0912    2.3997   -0.3770 C   0  0  0  0  0  0  0  0  0  0  0  0
    3.3655    3.4608   -0.4613 H   0  0  0  0  0  0  0  0  0  0  0  0
    1.7257    2.0242   -0.4084 C   0  0  0  0  0  0  0  0  0  0  0  0
    0.9223    2.7814   -0.5024 H   0  0  0  0  0  0  0  0  0  0  0  0
    4.0420    1.4103   -0.2128 C   0  0  0  0  0  0  0  0  0  0  0  0
    5.1151    1.6501   -0.1503 H   0  0  0  0  0  0  0  0  0  0  0  0
   -4.1843   -2.4336   -0.8498 C   0  0  0  0  0  0  0  0  0  0  0  0
   -4.9250   -2.0086   -1.5519 H   0  0  0  0  0  0  0  0  0  0  0  0
   -4.6455   -2.4356    0.1595 H   0  0  0  0  0  0  0  0  0  0  0  0
   -3.9500   -3.4763   -1.1387 H   0  0  0  0  0  0  0  0  0  0  0  0
    4.5888   -0.9934    0.0399 C   0  0  0  0  0  0  0  0  0  0  0  0
    5.6547   -0.7279    0.1127 H   0  0  0  0  0  0  0  0  0  0  0  0
    3.6340    0.0497   -0.1249 C   0  0  0  0  0  0  0  0  0  0  0  0
  1  6  1  1  0  0  0
  1 10  1  0  0  0  0
  2  3  1  0  0  0  0
  2 13  1  0  0  0  0
  5  7  1  0  0  0  0
  7  8  1  0  0  0  0
  7 12  1  0  0  0  0
  9  4  1  6  0  0  0
  9 12  1  0  0  0  0
  9 27  1  0  0  0  0
 10 11  1  0  0  0  0
 10  5  1  0  0  0  0
 12  2  2  0  0  0  0
 13 14  1  0  0  0  0
 15 19  1  0  0  0  0
 16 15  1  0  0  0  0
 17 15  2  0  0  0  0
 17  4  1  0  0  0  0
 18 17  1  0  0  0  0
 19 20  1  0  0  0  0
 19 27  2  0  0  0  0
 21  1  1  0  0  0  0
 21 23  1  0  0  0  0
 22 21  1  0  0  0  0
 24 21  1  0  0  0  0
 25 13  2  0  0  0  0
 25 26  1  0  0  0  0
 27 25  1  0  0  0  0
M  END
