2,3,5
q = -2.0, confidence = 0.972

 29 29  0  0  1  0  0  0  0  0999 V2000
   -0.9099    4.8985    0.0146 S   0  0  0  0  0  0  0  0  0  0  0  0
    1.5622   -0.6949   -0.1424 O   0  0  0  0  0  1  0  0  0  0  0  0
    1.7028    2.0791   -0.1159 N   0  0  0  0  0  2  0  0  0  0  0  0
    1.2048    3.3519   -0.1237 N   0  0  0  0  0  0  0  0  0  0  0  0
   -0.7720    2.1382   -0.0909 N   0  0  0  0  0  2  0  0  0  0  0  0
    2.8774   -0.6262   -0.0972 C   0  0  1  0  0  3  0  0  0  0  0  0
    3.5788   -1.8658   -0.0549 C   0  0  0  0  0  0  0  0  0  0  0  0
    2.9666   -2.7799   -0.0466 H   0  0  0  0  0  0  0  0  0  0  0  0
    4.9657   -1.9207   -0.0224 C   0  0  0  0  0  0  0  0  0  0  0  0
    5.4700   -2.9004    0.0084 H   0  0  0  0  0  0  0  0  0  0  0  0
    5.7420   -0.7326   -0.0264 C   0  0  0  0  0  0  0  0  0  0  0  0
    5.0616    0.4844   -0.0609 C   0  0  0  0  0  0  0  0  0  0  0  0
    5.6604    1.4057   -0.0603 H   0  0  0  0  0  0  0  0  0  0  0  0
    3.6381    0.5946   -0.0951 C   0  0  0  0  0  0  0  0  0  0  0  0
    7.2488   -0.7982    0.0083 C   0  0  0  0  0  0  0  0  0  0  0  0
    7.6544   -1.3502   -0.8664 H   0  0  0  0  0  0  0  0  0  0  0  0
    7.6146   -1.3268    0.9145 H   0  0  0  0  0  0  0  0  0  0  0  0
    7.7008    0.2130    0.0050 H   0  0  0  0  0  0  0  0  0  0  0  0
    3.0269    1.9116   -0.1159 C   0  0  0  0  0  0  0  0  0  0  0  0
    3.9046    3.1376   -0.1210 C   0  0  0  0  0  0  0  0  0  0  0  0
    3.2714    4.0389   -0.1645 H   0  0  0  0  0  0  0  0  0  0  0  0
    4.5918    3.1246   -0.9909 H   0  0  0  0  0  0  0  0  0  0  0  0
    4.5321    3.1759    0.7930 H   0  0  0  0  0  0  0  0  0  0  0  0
   -0.1164    3.3109   -0.0736 C   0  0  0  0  0  0  0  0  0  0  0  0
   -2.6600    4.4241   -0.1194 C   0  0  0  0  0  0  0  0  0  0  0  0
   -3.2291    5.3729   -0.1293 H   0  0  0  0  0  0  0  0  0  0  0  0
   -2.8624    3.8743   -1.0597 H   0  0  0  0  0  0  0  0  0  0  0  0
   -2.9995    3.8213    0.7476 H   0  0  0  0  0  0  0  0  0  0  0  0
   -1.7841    2.1367    0.0518 H   0  0  0  0  0  0  0  0  0  0  0  0
  3 19  1  0  0  0  0
  4  3  1  0  0  0  0
  4 24  2  0  0  0  0
  5 24  1  0  0  0  0
  5 29  1  0  0  0  0
  6  2  1  6  0  0  0
  6 14  1  0  0  0  0
  6  7  1  0  0  0  0
  7  8  1  0  0  0  0
  7  9  2  0  0  0  0
  9 10  1  0  0  0  0
 11  9  1  0  0  0  0
 11 15  1  0  0  0  0
 12 13  1  0  0  0  0
 12 11  2  0  0  0  0
 14 12  1  0  0  0  0
 15 17  1  0  0  0  0
 16 15  1  0  0  0  0
 18 15  1  0  0  0  0
 19 14  2  0  0  0  0
 20 19  1  0  0  0  0
 20 23  1  0  0  0  0
 21 20  1  0  0  0  0
 22 20  1  0  0  0  0
 24  1  1  0  0  0  0
 25  1  1  0  0  0  0
 25 28  1  0  0  0  0
 26 25  1  0  0  0  0
 27 25  1  0  0  0  0
M  END
