1,2,3
q = -1.0, confidence = 0.102

 64 64  0  0  0  0  0  0  0  0999 V2000
    0.8459   -2.0107    0.2616 N   0  0  0  0  0  0  0  0  0  0  0  0
    3.0481   -0.1044    1.0828 N   0  0  0  0  0  0  0  0  0  0  0  0
    0.2013    0.7426    0.3839 O   0  5  0  0  0  0  0  0  0  0  0  0
   -0.2993   -1.8153    1.1995 C   0  0  0  0  0  0  0  0  0  0  0  0
   -0.6854   -2.8146    1.5044 H   0  0  0  0  0  0  0  0  0  0  0  0
    0.0989   -1.3319    2.1123 H   0  0  0  0  0  0  0  0  0  0  0  0
   -1.4218   -0.9565    0.6917 C   0  0  0  0  0  0  0  0  0  0  0  0
   -1.1158    0.3897    0.3819 C   0  0  0  0  0  0  0  0  0  0  0  0
   -2.1446    1.3225    0.0914 C   0  0  0  0  0  0  0  0  0  0  0  0
   -3.4605    0.8108    0.0573 C   0  0  0  0  0  0  0  0  0  0  0  0
   -4.2686    1.5095   -0.1832 H   0  0  0  0  0  0  0  0  0  0  0  0
   -3.7954   -0.5334    0.3040 C   0  0  0  0  0  0  0  0  0  0  0  0
   -2.7445   -1.4076    0.6418 C   0  0  0  0  0  0  0  0  0  0  0  0
   -2.9486   -2.4629    0.8842 H   0  0  0  0  0  0  0  0  0  0  0  0
   -1.8575    2.8147   -0.1687 C   0  0  0  0  0  0  0  0  0  0  0  0
   -1.0776    2.9882   -1.4927 C   0  0  0  0  0  0  0  0  0  0  0  0
   -0.0651    2.5503   -1.4443 H   0  0  0  0  0  0  0  0  0  0  0  0
   -0.9614    4.0683   -1.7201 H   0  0  0  0  0  0  0  0  0  0  0  0
   -1.6168    2.5137   -2.3365 H   0  0  0  0  0  0  0  0  0  0  0  0
   -1.0352    3.4019    1.0023 C   0  0  0  0  0  0  0  0  0  0  0  0
   -1.5844    3.3020    1.9611 H   0  0  0  0  0  0  0  0  0  0  0  0
   -0.8448    4.4809    0.8272 H   0  0  0  0  0  0  0  0  0  0  0  0
   -0.0592    2.8918    1.1014 H   0  0  0  0  0  0  0  0  0  0  0  0
   -3.1602    3.6303   -0.2802 C   0  0  0  0  0  0  0  0  0  0  0  0
   -3.7726    3.3240   -1.1521 H   0  0  0  0  0  0  0  0  0  0  0  0
   -2.9092    4.7012   -0.4162 H   0  0  0  0  0  0  0  0  0  0  0  0
   -3.7855    3.5452    0.6318 H   0  0  0  0  0  0  0  0  0  0  0  0
   -5.2396   -1.0600    0.2277 C   0  0  0  0  0  0  0  0  0  0  0  0
   -5.3139   -2.1758   -0.8395 C   0  0  0  0  0  0  0  0  0  0  0  0
   -5.0232   -1.7882   -1.8367 H   0  0  0  0  0  0  0  0  0  0  0  0
   -6.3457   -2.5786   -0.9114 H   0  0  0  0  0  0  0  0  0  0  0  0
   -4.6389   -3.0209   -0.5977 H   0  0  0  0  0  0  0  0  0  0  0  0
   -6.2417    0.0429   -0.1546 C   0  0  0  0  0  0  0  0  0  0  0  0
   -6.2562    0.8642    0.5901 H   0  0  0  0  0  0  0  0  0  0  0  0
   -7.2651   -0.3804   -0.2039 H   0  0  0  0  0  0  0  0  0  0  0  0
   -6.0134    0.4811   -1.1470 H   0  0  0  0  0  0  0  0  0  0  0  0
   -5.6497   -1.6336    1.6031 C   0  0  0  0  0  0  0  0  0  0  0  0
   -4.9862   -2.4638    1.9175 H   0  0  0  0  0  0  0  0  0  0  0  0
   -6.6867   -2.0279    1.5673 H   0  0  0  0  0  0  0  0  0  0  0  0
   -5.6051   -0.8507    2.3870 H   0  0  0  0  0  0  0  0  0  0  0  0
    0.4707   -3.0359   -0.7341 C   0  0  0  0  0  0  0  0  0  0  0  0
    1.2806   -3.1437   -1.4774 H   0  0  0  0  0  0  0  0  0  0  0  0
   -0.4474   -2.7063   -1.2548 H   0  0  0  0  0  0  0  0  0  0  0  0
    0.2804   -4.0145   -0.2358 H   0  0  0  0  0  0  0  0  0  0  0  0
    2.0485   -2.4174    1.0235 C   0  0  0  0  0  0  0  0  0  0  0  0
    2.8047   -2.7548    0.2892 H   0  0  0  0  0  0  0  0  0  0  0  0
    1.8111   -3.2837    1.6863 H   0  0  0  0  0  0  0  0  0  0  0  0
    2.6075   -1.2786    1.8742 C   0  0  0  0  0  0  0  0  0  0  0  0
    1.8424   -0.9355    2.5976 H   0  0  0  0  0  0  0  0  0  0  0  0
    3.4468   -1.6794    2.4860 H   0  0  0  0  0  0  0  0  0  0  0  0
    2.8188    1.1681    1.8327 C   0  0  0  0  0  0  0  0  0  0  0  0
    1.7323    1.2158    2.0381 H   0  0  0  0  0  0  0  0  0  0  0  0
    3.0264    1.9977    1.1296 H   0  0  0  0  0  0  0  0  0  0  0  0
    3.6171    1.3450    3.1242 C   0  0  0  0  0  0  0  0  0  0  0  0
    3.4354    0.5272    3.8512 H   0  0  0  0  0  0  0  0  0  0  0  0
    3.3085    2.2904    3.6130 H   0  0  0  0  0  0  0  0  0  0  0  0
    4.7092    1.4086    2.9477 H   0  0  0  0  0  0  0  0  0  0  0  0
    4.4875   -0.2855    0.7248 C   0  0  0  0  0  0  0  0  0  0  0  0
    4.5521   -1.2262    0.1462 H   0  0  0  0  0  0  0  0  0  0  0  0
    5.0630   -0.4436    1.6675 H   0  0  0  0  0  0  0  0  0  0  0  0
    5.1153    0.8390   -0.0842 C   0  0  0  0  0  0  0  0  0  0  0  0
    4.5606    1.0227   -1.0227 H   0  0  0  0  0  0  0  0  0  0  0  0
    6.1529    0.5508   -0.3444 H   0  0  0  0  0  0  0  0  0  0  0  0
    5.1677    1.7918    0.4791 H   0  0  0  0  0  0  0  0  0  0  0  0
  1 45  1  0  0  0  0
  1  4  1  0  0  0  0
  2 51  1  0  0  0  0
  2 48  1  0  0  0  0
  4  5  1  0  0  0  0
  4  6  1  0  0  0  0
  7  4  1  0  0  0  0
  8  3  1  0  0  0  0
  8  7  2  0  0  0  0
  9  8  1  0  0  0  0
 10  9  2  0  0  0  0
 10 12  1  0  0  0  0
 11 10  1  0  0  0  0
 12 13  2  0  0  0  0
 13  7  1  0  0  0  0
 13 14  1  0  0  0  0
 15  9  1  0  0  0  0
 15 20  1  0  0  0  0
 16 17  1  0  0  0  0
 16 15  1  0  0  0  0
 18 16  1  0  0  0  0
 19 16  1  0  0  0  0
 20 23  1  0  0  0  0
 20 21  1  0  0  0  0
 22 20  1  0  0  0  0
 24 15  1  0  0  0  0
 24 27  1  0  0  0  0
 25 24  1  0  0  0  0
 26 24  1  0  0  0  0
 28 12  1  0  0  0  0
 28 37  1  0  0  0  0
 29 32  1  0  0  0  0
 29 28  1  0  0  0  0
 30 29  1  0  0  0  0
 31 29  1  0  0  0  0
 33 28  1  0  0  0  0
 33 34  1  0  0  0  0
 35 33  1  0  0  0  0
 36 33  1  0  0  0  0
 37 38  1  0  0  0  0
 37 40  1  0  0  0  0
 39 37  1  0  0  0  0
 41 44  1  0  0  0  0
 41  1  1  0  0  0  0
 42 41  1  0  0  0  0
 43 41  1  0  0  0  0
 45 47  1  0  0  0  0
 45 48  1  0  0  0  0
 46 45  1  0  0  0  0
 48 50  1  0  0  0  0
 48 49  1  0  0  0  0
 51 52  1  0  0  0  0
 51 54  1  0  0  0  0
 53 51  1  0  0  0  0
 54 56  1  0  0  0  0
 54 55  1  0  0  0  0
 57 54  1  0  0  0  0
 58  2  1  0  0  0  0
 58 60  1  0  0  0  0
 59 58  1  0  0  0  0
 61 64  1  0  0  0  0
 61 58  1  0  0  0  0
 62 61  1  0  0  0  0
 63 61  1  0  0  0  0
M  CHG  1   3  -1
M  END
