1,2,3
q = -2.0, confidence = 0.78

 30 30  0  0  1  0  0  0  0  0999 V2000
    1.2195   -1.3938    0.0823 N   0  0  0  0  0  2  0  0  0  0  0  0
   -1.1430    0.0146    0.0440 O   0  5  0  0  0  0  0  0  0  0  0  0
    2.4709    0.7022   -0.0586 N   0  0  0  0  0  2  0  0  0  0  0  0
    2.9587    1.5521   -0.3589 H   0  0  0  0  0  0  0  0  0  0  0  0
    2.5744   -1.6033    0.1085 N   0  0  0  0  0  0  0  0  0  0  0  0
    3.1881   -0.4415   -0.0210 C   0  0  0  0  0  0  0  0  0  0  0  0
    0.4220   -2.4695    0.1370 C   0  0  1  0  0  3  0  0  0  0  0  0
    4.9574   -0.3609   -0.1072 S   0  0  0  0  0  0  0  0  0  0  0  0
   -1.7080   -1.1643    0.0656 C   0  0  0  0  0  0  0  0  0  0  0  0
   -0.9922   -2.3637    0.1260 C   0  0  0  0  0  0  0  0  0  0  0  0
   -1.5523   -3.3040    0.1905 H   0  0  0  0  0  0  0  0  0  0  0  0
   -3.1957   -1.1387    0.0459 C   0  0  0  0  0  0  0  0  0  0  0  0
    1.0751   -3.8235    0.2108 C   0  0  0  0  0  0  0  0  0  0  0  0
    1.7364   -3.8844    1.0989 H   0  0  0  0  0  0  0  0  0  0  0  0
    1.7379   -3.9800   -0.6645 H   0  0  0  0  0  0  0  0  0  0  0  0
    0.3181   -4.6277    0.2529 H   0  0  0  0  0  0  0  0  0  0  0  0
   -3.8669    0.0650    0.3663 C   0  0  0  0  0  0  0  0  0  0  0  0
   -3.2604    0.9426    0.6310 H   0  0  0  0  0  0  0  0  0  0  0  0
   -6.0282   -0.9997    0.0286 C   0  0  0  0  0  0  0  0  0  0  0  0
   -7.1275   -0.9476    0.0221 H   0  0  0  0  0  0  0  0  0  0  0  0
   -3.9755   -2.2690   -0.2923 C   0  0  0  0  0  0  0  0  0  0  0  0
   -3.4816   -3.2088   -0.5782 H   0  0  0  0  0  0  0  0  0  0  0  0
   -5.3742   -2.1994   -0.2992 C   0  0  0  0  0  0  0  0  0  0  0  0
   -5.9611   -3.0899   -0.5721 H   0  0  0  0  0  0  0  0  0  0  0  0
   -5.2656    0.1323    0.3601 C   0  0  0  0  0  0  0  0  0  0  0  0
   -5.7678    1.0769    0.6210 H   0  0  0  0  0  0  0  0  0  0  0  0
    5.3638   -2.1279   -0.2330 C   0  0  0  0  0  0  0  0  0  0  0  0
    6.4678   -2.1863   -0.2818 H   0  0  0  0  0  0  0  0  0  0  0  0
    4.9154   -2.5663   -1.1441 H   0  0  0  0  0  0  0  0  0  0  0  0
    4.9874   -2.6688    0.6546 H   0  0  0  0  0  0  0  0  0  0  0  0
  1  5  1  0  0  0  0
  2  9  1  0  0  0  0
  3  6  1  0  0  0  0
  4  3  1  0  0  0  0
  6  5  2  0  0  0  0
  7  1  1  6  0  0  0
  7 13  1  0  0  0  0
  8  6  1  0  0  0  0
  9 10  2  0  0  0  0
 10  7  1  0  0  0  0
 10 11  1  0  0  0  0
 12  9  1  0  0  0  0
 12 17  1  0  0  0  0
 13 16  1  0  0  0  0
 13 14  1  0  0  0  0
 15 13  1  0  0  0  0
 17 18  1  0  0  0  0
 19 25  1  0  0  0  0
 20 19  1  0  0  0  0
 21 12  2  0  0  0  0
 22 21  1  0  0  0  0
 23 21  1  0  0  0  0
 23 19  2  0  0  0  0
 24 23  1  0  0  0  0
 25 17  2  0  0  0  0
 25 26  1  0  0  0  0
 27  8  1  0  0  0  0
 27 30  1  0  0  0  0
 28 27  1  0  0  0  0
 29 27  1  0  0  0  0
M  CHG  1   2  -1
M  END
