1,2,3
q = -1.0, confidence = 0.016

 22 22  0  0  0  0  0  0  0  0999 V2000
    1.3839   -1.2606    0.5721 N   0  0  0  0  0  2  0  0  0  0  0  0
   -0.7510   -1.1433    1.8709 O   0  5  0  0  0  0  0  0  0  0  0  0
    1.0909    0.8451   -0.8156 N   0  0  0  0  0  2  0  0  0  0  0  0
    1.2553   -2.2697    1.4222 N   0  0  0  0  0  0  0  0  0  0  0  0
   -0.2308   -3.0379    3.0217 N   0  0  0  0  0  0  0  0  0  0  0  0
   -1.0849   -2.9382    3.5675 H   0  0  0  0  0  0  0  0  0  0  0  0
    0.4308   -3.7835    3.2312 H   0  0  0  0  0  0  0  0  0  0  0  0
    2.4267   -1.0492   -0.2204 C   0  0  0  0  0  0  0  0  0  0  0  0
    2.2642    0.1529   -1.0212 C   0  0  0  0  0  0  0  0  0  0  0  0
    0.0759   -2.1143    2.0904 C   0  0  0  0  0  0  0  0  0  0  0  0
    2.9403    1.8142   -2.6561 C   0  0  0  0  0  0  0  0  0  0  0  0
    3.6697    2.1984   -3.3843 H   0  0  0  0  0  0  0  0  0  0  0  0
    1.7398    2.5041   -2.4205 C   0  0  0  0  0  0  0  0  0  0  0  0
    1.4976    3.4373   -2.9469 H   0  0  0  0  0  0  0  0  0  0  0  0
    0.8377    1.9817   -1.4861 C   0  0  0  0  0  0  0  0  0  0  0  0
   -0.1119    2.4857   -1.2546 H   0  0  0  0  0  0  0  0  0  0  0  0
    3.6249   -1.9387   -0.2559 C   0  0  0  0  0  0  0  0  0  0  0  0
    3.4885   -2.7653    0.4643 H   0  0  0  0  0  0  0  0  0  0  0  0
    4.5462   -1.3822    0.0154 H   0  0  0  0  0  0  0  0  0  0  0  0
    3.7837   -2.3685   -1.2671 H   0  0  0  0  0  0  0  0  0  0  0  0
    3.2059    0.6345   -1.9538 C   0  0  0  0  0  0  0  0  0  0  0  0
    4.1390    0.0773   -2.1132 H   0  0  0  0  0  0  0  0  0  0  0  0
  1  4  1  0  0  0  0
  2 10  1  0  0  0  0
  4 10  2  0  0  0  0
  5  7  1  0  0  0  0
  5  6  1  0  0  0  0
  8  1  1  0  0  0  0
  9  3  1  0  0  0  0
  9  8  2  0  0  0  0
 10  5  1  0  0  0  0
 11 13  1  0  0  0  0
 11 21  2  0  0  0  0
 12 11  1  0  0  0  0
 13 15  2  0  0  0  0
 14 13  1  0  0  0  0
 15 16  1  0  0  0  0
 15  3  1  0  0  0  0
 17  8  1  0  0  0  0
 17 19  1  0  0  0  0
 17 18  1  0  0  0  0
 20 17  1  0  0  0  0
 21  9  1  0  0  0  0
 22 21  1  0  0  0  0
M  CHG  1   2  -1
M  END
