1,2,4
q = -1.0, confidence = 0.09

 60 62  0  0  1  0  0  0  0  0999 V2000
    2.2628    1.9325   -0.0764 O   0  0  0  0  0  1  0  0  0  0  0  0
   -1.2216   -0.1451   -0.5031 N   0  0  0  0  0  0  0  0  0  0  0  0
   -1.7054    0.6984   -0.9238 H   0  0  0  0  0  0  0  0  0  0  0  0
    1.4200   -0.7275   -0.9152 N   0  0  0  0  0  2  0  0  0  0  0  0
   -2.0285   -0.6256    0.6188 C   0  0  0  0  0  0  0  0  0  0  0  0
   -1.4437   -1.2935    1.7343 C   0  0  0  0  0  0  0  0  0  0  0  0
   -2.2925   -1.7925    2.7415 C   0  0  0  0  0  0  0  0  0  0  0  0
   -1.8422   -2.3147    3.5990 H   0  0  0  0  0  0  0  0  0  0  0  0
   -3.6777   -1.6284    2.6871 C   0  0  0  0  0  0  0  0  0  0  0  0
   -4.3192   -2.0264    3.4878 H   0  0  0  0  0  0  0  0  0  0  0  0
   -4.2365   -0.9383    1.6098 C   0  0  0  0  0  0  0  0  0  0  0  0
   -5.3258   -0.7873    1.5715 H   0  0  0  0  0  0  0  0  0  0  0  0
   -3.4441   -0.4324    0.5617 C   0  0  0  0  0  0  0  0  0  0  0  0
   -0.9015   -1.1270   -1.6321 C   0  0  0  0  0  0  0  0  0  0  0  0
   -0.9936   -0.3306   -2.9530 C   0  0  0  0  0  0  0  0  0  0  0  0
   -2.0301    0.0235   -3.1183 H   0  0  0  0  0  0  0  0  0  0  0  0
   -0.6971   -0.9756   -3.8020 H   0  0  0  0  0  0  0  0  0  0  0  0
   -0.3263    0.5531   -2.9258 H   0  0  0  0  0  0  0  0  0  0  0  0
   -1.8879   -2.2990   -1.6585 C   0  0  0  0  0  0  0  0  0  0  0  0
   -1.8010   -2.9350   -0.7574 H   0  0  0  0  0  0  0  0  0  0  0  0
   -1.7206   -2.9236   -2.5561 H   0  0  0  0  0  0  0  0  0  0  0  0
   -2.9232   -1.9201   -1.7124 H   0  0  0  0  0  0  0  0  0  0  0  0
    0.5466   -1.6046   -1.4922 C   0  0  0  0  0  0  0  0  0  0  0  0
    0.9909   -2.8240   -2.0047 C   0  0  0  0  0  0  0  0  0  0  0  0
    0.2811   -3.5288   -2.4536 H   0  0  0  0  0  0  0  0  0  0  0  0
    2.3665   -3.1101   -1.9627 C   0  0  0  0  0  0  0  0  0  0  0  0
    2.7528   -4.0419   -2.4019 H   0  0  0  0  0  0  0  0  0  0  0  0
    3.2389   -2.2031   -1.3764 C   0  0  0  0  0  0  0  0  0  0  0  0
    4.3165   -2.4024   -1.3775 H   0  0  0  0  0  0  0  0  0  0  0  0
    2.7582   -0.9980   -0.7890 C   0  0  0  0  0  0  0  0  0  0  0  0
    3.6682   -0.0892   -0.0857 C   0  0  0  0  0  0  0  0  0  0  0  0
    3.3869    1.3118    0.1617 C   0  0  1  0  0  3  0  0  0  0  0  0
    4.4413    2.1186    0.7030 C   0  0  0  0  0  0  0  0  0  0  0  0
    4.2096    3.1839    0.8451 H   0  0  0  0  0  0  0  0  0  0  0  0
    5.6690    1.5860    1.0625 C   0  0  0  0  0  0  0  0  0  0  0  0
    6.4400    2.2409    1.4977 H   0  0  0  0  0  0  0  0  0  0  0  0
    5.9197    0.2033    0.8997 C   0  0  0  0  0  0  0  0  0  0  0  0
    6.8725   -0.2385    1.2248 H   0  0  0  0  0  0  0  0  0  0  0  0
    4.9362   -0.5951    0.3316 C   0  0  0  0  0  0  0  0  0  0  0  0
    5.1354   -1.6714    0.2318 H   0  0  0  0  0  0  0  0  0  0  0  0
   -4.1795    0.3179   -0.5514 C   0  0  0  0  0  0  0  0  0  0  0  0
   -3.4606    0.6133   -1.3382 H   0  0  0  0  0  0  0  0  0  0  0  0
   -5.2704   -0.5367   -1.2218 C   0  0  0  0  0  0  0  0  0  0  0  0
   -4.8719   -1.4889   -1.6265 H   0  0  0  0  0  0  0  0  0  0  0  0
   -5.7316    0.0223   -2.0612 H   0  0  0  0  0  0  0  0  0  0  0  0
   -6.0828   -0.7964   -0.5129 H   0  0  0  0  0  0  0  0  0  0  0  0
   -4.7824    1.6273   -0.0106 C   0  0  0  0  0  0  0  0  0  0  0  0
   -5.5744    1.4240    0.7398 H   0  0  0  0  0  0  0  0  0  0  0  0
   -5.2328    2.2150   -0.8356 H   0  0  0  0  0  0  0  0  0  0  0  0
   -4.0069    2.2554    0.4642 H   0  0  0  0  0  0  0  0  0  0  0  0
    0.0533   -1.4883    1.9387 C   0  0  0  0  0  0  0  0  0  0  0  0
    0.5717   -0.9194    1.1474 H   0  0  0  0  0  0  0  0  0  0  0  0
    0.5362   -0.8765    3.2638 C   0  0  0  0  0  0  0  0  0  0  0  0
    0.2548    0.1935    3.3280 H   0  0  0  0  0  0  0  0  0  0  0  0
    1.6416   -0.9408    3.3294 H   0  0  0  0  0  0  0  0  0  0  0  0
    0.1166   -1.3975    4.1492 H   0  0  0  0  0  0  0  0  0  0  0  0
    0.4676   -2.9618    1.8029 C   0  0  0  0  0  0  0  0  0  0  0  0
    0.0084   -3.5894    2.5955 H   0  0  0  0  0  0  0  0  0  0  0  0
    1.5691   -3.0643    1.8867 H   0  0  0  0  0  0  0  0  0  0  0  0
    0.1636   -3.3829    0.8235 H   0  0  0  0  0  0  0  0  0  0  0  0
  2  5  1  0  0  0  0
  3  2  1  0  0  0  0
  4 30  1  0  0  0  0
  5  6  1  0  0  0  0
  6 51  1  0  0  0  0
  6  7  2  0  0  0  0
  7  8  1  0  0  0  0
  9  7  1  0  0  0  0
  9 10  1  0  0  0  0
 11  9  2  0  0  0  0
 12 11  1  0  0  0  0
 13  5  2  0  0  0  0
 13 11  1  0  0  0  0
 14 23  1  0  0  0  0
 14  2  1  0  0  0  0
 15 18  1  0  0  0  0
 15 14  1  0  0  0  0
 16 15  1  0  0  0  0
 17 15  1  0  0  0  0
 19 14  1  0  0  0  0
 19 20  1  0  0  0  0
 21 19  1  0  0  0  0
 22 19  1  0  0  0  0
 23  4  1  0  0  0  0
 24 26  1  0  0  0  0
 24 23  2  0  0  0  0
 25 24  1  0  0  0  0
 26 28  2  0  0  0  0
 27 26  1  0  0  0  0
 28 30  1  0  0  0  0
 29 28  1  0  0  0  0
 30 31  2  0  0  0  0
 31 32  1  0  0  0  0
 31 39  1  0  0  0  0
 32  1  1  6  0  0  0
 32 33  1  0  0  0  0
 33 34  1  0  0  0  0
 33 35  2  0  0  0  0
 35 36  1  0  0  0  0
 37 35  1  0  0  0  0
 37 38  1  0  0  0  0
 39 37  2  0  0  0  0
 40 39  1  0  0  0  0
 41 47  1  0  0  0  0
 41 13  1  0  0  0  0
 42 41  1  0  0  0  0
 43 41  1  0  0  0  0
 43 46  1  0  0  0  0
 44 43  1  0  0  0  0
 45 43  1  0  0  0  0
 47 50  1  0  0  0  0
 47 48  1  0  0  0  0
 49 47  1  0  0  0  0
 51 53  1  0  0  0  0
 52 51  1  0  0  0  0
 53 54  1  0  0  0  0
 53 55  1  0  0  0  0
 53 56  1  0  0  0  0
 57 59  1  0  0  0  0
 57 51  1  0  0  0  0
 57 58  1  0  0  0  0
 60 57  1  0  0  0  0
M  END
