1,2,3
q = -1.0, confidence = 0.004

 36 36  0  0  0  0  0  0  0  0999 V2000
   -0.6646   -1.8103   -0.2967 N   0  0  0  0  0  2  0  0  0  0  0  0
   -2.8727   -0.4113   -0.4791 N   0  0  0  0  0  0  0  0  0  0  0  0
    0.7679    0.4925    0.0367 O   0  5  0  0  0  0  0  0  0  0  0  0
    5.5090    0.0933    0.2847 O   0  0  0  0  0  0  0  0  0  0  0  0
    1.7610   -1.7195   -0.1226 C   0  0  0  0  0  0  0  0  0  0  0  0
    1.8135   -0.2805    0.0211 C   0  0  0  0  0  0  0  0  0  0  0  0
    3.0923    0.3385    0.1590 C   0  0  0  0  0  0  0  0  0  0  0  0
    3.0918    1.4306    0.2613 H   0  0  0  0  0  0  0  0  0  0  0  0
    4.2617   -0.4238    0.1583 C   0  0  0  0  0  0  0  0  0  0  0  0
    4.2090   -1.8449    0.0171 C   0  0  0  0  0  0  0  0  0  0  0  0
    5.1521   -2.4078    0.0210 H   0  0  0  0  0  0  0  0  0  0  0  0
    2.9818   -2.4609   -0.1200 C   0  0  0  0  0  3  0  0  0  0  0  0
    2.9290   -3.5561   -0.2298 H   0  0  0  0  0  0  0  0  0  0  0  0
    0.5191   -2.3929   -0.2633 C   0  0  0  0  0  0  0  0  0  0  0  0
    0.5491   -3.4978   -0.3533 H   0  0  0  0  0  0  0  0  0  0  0  0
   -1.8703   -2.6376   -0.3645 C   0  0  0  0  0  0  0  0  0  0  0  0
   -2.1693   -2.9491    0.6595 H   0  0  0  0  0  0  0  0  0  0  0  0
   -1.6941   -3.5674   -0.9486 H   0  0  0  0  0  0  0  0  0  0  0  0
   -2.9639   -1.7951   -1.0116 C   0  0  0  0  0  0  0  0  0  0  0  0
   -2.7844   -1.7351   -2.1033 H   0  0  0  0  0  0  0  0  0  0  0  0
   -3.9718   -2.2354   -0.8574 H   0  0  0  0  0  0  0  0  0  0  0  0
   -3.7177   -0.0440    0.7061 C   0  0  0  0  0  0  0  0  0  0  0  0
   -3.4182    1.0083    0.8929 H   0  0  0  0  0  0  0  0  0  0  0  0
   -3.3748   -0.8665    1.9450 C   0  0  0  0  0  0  0  0  0  0  0  0
   -3.8843   -0.4327    2.8274 H   0  0  0  0  0  0  0  0  0  0  0  0
   -2.2838   -0.8519    2.1384 H   0  0  0  0  0  0  0  0  0  0  0  0
   -3.7112   -1.9202    1.8574 H   0  0  0  0  0  0  0  0  0  0  0  0
   -5.2103   -0.0788    0.3696 C   0  0  0  0  0  0  0  0  0  0  0  0
   -5.5776   -1.1092    0.1806 H   0  0  0  0  0  0  0  0  0  0  0  0
   -5.4418    0.5434   -0.5191 H   0  0  0  0  0  0  0  0  0  0  0  0
   -5.7954    0.3261    1.2187 H   0  0  0  0  0  0  0  0  0  0  0  0
    5.6440    1.4979    0.4254 C   0  0  0  0  0  0  0  0  0  0  0  0
    5.2380    2.0397   -0.4571 H   0  0  0  0  0  0  0  0  0  0  0  0
    6.7275    1.7003    0.5109 H   0  0  0  0  0  0  0  0  0  0  0  0
    5.1283    1.8703    1.3379 H   0  0  0  0  0  0  0  0  0  0  0  0
   -3.1188    0.2632   -1.2185 H   0  0  0  0  0  0  0  0  0  0  0  0
  1 14  1  0  0  0  0
  2 22  1  0  0  0  0
  4 32  1  0  0  0  0
  5 12  1  0  0  0  0
  5  6  1  0  0  0  0
  6  3  1  0  0  0  0
  6  7  2  0  0  0  0
  7  8  1  0  0  0  0
  9  7  1  0  0  0  0
  9  4  1  0  0  0  0
 10 11  1  0  0  0  0
 10  9  2  0  0  0  0
 12 10  1  0  0  0  0
 13 12  1  0  0  0  0
 14  5  2  0  0  0  0
 15 14  1  0  0  0  0
 16  1  1  0  0  0  0
 16 17  1  0  0  0  0
 18 16  1  0  0  0  0
 19 21  1  0  0  0  0
 19  2  1  0  0  0  0
 19 16  1  0  0  0  0
 20 19  1  0  0  0  0
 22 23  1  0  0  0  0
 22 24  1  0  0  0  0
 24 26  1  0  0  0  0
 24 25  1  0  0  0  0
 27 24  1  0  0  0  0
 28 22  1  0  0  0  0
 28 31  1  0  0  0  0
 29 28  1  0  0  0  0
 30 28  1  0  0  0  0
 32 34  1  0  0  0  0
 32 35  1  0  0  0  0
 33 32  1  0  0  0  0
 36  2  1  0  0  0  0
M  CHG  1   3  -1
M  END
