1,2,3
q = -1.0, confidence = 0.036

 27 28  0  0  0  0  0  0  0  0999 V2000
   -1.1138   -1.0477    0.0008 O   0  5  0  0  0  0  0  0  0  0  0  0
    2.7197   -0.0959    0.0003 N   0  0  0  0  0  2  0  0  0  0  0  0
    0.3556    0.9279   -0.0000 N   0  0  0  0  0  2  0  0  0  0  0  0
   -0.9334    1.2614   -0.0001 N   0  0  0  0  0  0  0  0  0  0  0  0
    3.9062   -0.7216    0.0008 C   0  0  0  0  0  3  0  0  0  0  0  0
    3.8665   -1.8214    0.0012 H   0  0  0  0  0  0  0  0  0  0  0  0
    5.1172   -0.0148    0.0009 C   0  0  0  0  0  0  0  0  0  0  0  0
    6.0694   -0.5627    0.0013 H   0  0  0  0  0  0  0  0  0  0  0  0
    5.0770    1.3891    0.0005 C   0  0  0  0  0  0  0  0  0  0  0  0
    6.0093    1.9734    0.0006 H   0  0  0  0  0  0  0  0  0  0  0  0
    3.8395    2.0414    0.0001 C   0  0  0  0  0  0  0  0  0  0  0  0
    3.7694    3.1384   -0.0001 H   0  0  0  0  0  0  0  0  0  0  0  0
    2.6597    1.2689    0.0000 C   0  0  0  0  0  0  0  0  0  0  0  0
    1.3177    1.8182   -0.0003 C   0  0  0  0  0  3  0  0  0  0  0  0
    1.1110    2.9020   -0.0005 H   0  0  0  0  0  0  0  0  0  0  0  0
   -1.6609    0.1179    0.0003 C   0  0  0  0  0  0  0  0  0  0  0  0
   -3.1327    0.2262    0.0003 C   0  0  0  0  0  0  0  0  0  0  0  0
   -3.7656    1.4898   -0.0003 C   0  0  0  0  0  0  0  0  0  0  0  0
   -3.1389    2.3924   -0.0006 H   0  0  0  0  0  0  0  0  0  0  0  0
   -5.1626    1.5693   -0.0003 C   0  0  0  0  0  0  0  0  0  0  0  0
   -5.6556    2.5532   -0.0008 H   0  0  0  0  0  0  0  0  0  0  0  0
   -5.9359    0.3951    0.0002 C   0  0  0  0  0  0  0  0  0  0  0  0
   -7.0347    0.4614    0.0002 H   0  0  0  0  0  0  0  0  0  0  0  0
   -5.3094   -0.8633    0.0008 C   0  0  0  0  0  0  0  0  0  0  0  0
   -5.9164   -1.7811    0.0012 H   0  0  0  0  0  0  0  0  0  0  0  0
   -3.9127   -0.9508    0.0008 C   0  0  0  0  0  0  0  0  0  0  0  0
   -3.3973   -1.9219    0.0013 H   0  0  0  0  0  0  0  0  0  0  0  0
  2  5  1  0  0  0  0
  4  3  1  0  0  0  0
  4 16  2  0  0  0  0
  5  7  1  0  0  0  0
  5  6  1  0  0  0  0
  7  8  1  0  0  0  0
  9 10  1  0  0  0  0
  9  7  2  0  0  0  0
 11  9  1  0  0  0  0
 12 11  1  0  0  0  0
 13 11  2  0  0  0  0
 13  2  1  0  0  0  0
 14  3  1  0  0  0  0
 14 13  1  0  0  0  0
 15 14  1  0  0  0  0
 16  1  1  0  0  0  0
 17 16  1  0  0  0  0
 17 26  1  0  0  0  0
 18 17  2  0  0  0  0
 19 18  1  0  0  0  0
 20 18  1  0  0  0  0
 20 22  2  0  0  0  0
 21 20  1  0  0  0  0
 22 24  1  0  0  0  0
 23 22  1  0  0  0  0
 24 26  2  0  0  0  0
 24 25  1  0  0  0  0
 26 27  1  0  0  0  0
M  CHG  1   1  -1
M  END
