1,3,4
q = -1.0, confidence = 0.014

 33 33  0  0  1  0  0  0  0  0999 V2000
   -0.1197   -0.0866    1.5440 O   0  5  0  0  0  0  0  0  0  0  0  0
    0.7691    1.5498    2.8328 O   0  0  0  0  0  0  0  0  0  0  0  0
   -1.8257    0.8362   -0.2640 N   0  0  0  0  0  2  0  0  0  0  0  0
    0.9168    0.7900   -0.6681 N   0  0  0  0  0  0  0  0  0  0  0  0
   -3.0335    0.8835    0.3418 C   0  0  0  0  0  3  0  0  0  0  0  0
   -3.4060   -0.0859    0.7123 H   0  0  0  0  0  0  0  0  0  0  0  0
   -3.7430    2.0802    0.4691 C   0  0  0  0  0  0  0  0  0  0  0  0
   -4.7252    2.0782    0.9622 H   0  0  0  0  0  0  0  0  0  0  0  0
   -3.1796    3.2614   -0.0350 C   0  0  0  0  0  0  0  0  0  0  0  0
   -3.7097    4.2207    0.0583 H   0  0  0  0  0  0  0  0  0  0  0  0
   -1.9164    3.2078   -0.6433 C   0  0  0  0  0  0  0  0  0  0  0  0
   -1.4332    4.1179   -1.0270 H   0  0  0  0  0  0  0  0  0  0  0  0
   -1.2538    1.9792   -0.7424 C   0  0  0  0  0  0  0  0  0  0  0  0
    0.1089    1.8240   -1.3721 C   0  0  0  0  0  0  0  0  0  0  0  0
   -0.0208    1.4649   -2.4143 H   0  0  0  0  0  0  0  0  0  0  0  0
    0.6367    2.8001   -1.4038 H   0  0  0  0  0  0  0  0  0  0  0  0
    0.6840    0.9425    1.7840 C   0  0  0  0  0  0  0  0  0  0  0  0
    1.5921    1.2426    0.5740 C   0  0  1  0  0  0  0  0  0  0  0  0
    1.7582    2.3397    0.5345 H   0  0  0  0  0  0  0  0  0  0  0  0
    2.9242    0.5014    0.7750 C   0  0  0  0  0  0  0  0  0  0  0  0
    2.7006   -0.5764    0.9262 H   0  0  0  0  0  0  0  0  0  0  0  0
    3.3560    0.8833    1.7237 H   0  0  0  0  0  0  0  0  0  0  0  0
    3.9549    0.6485   -0.3590 C   0  0  0  0  0  0  0  0  0  0  0  0
    3.5167    0.2161   -1.2925 H   0  0  0  0  0  0  0  0  0  0  0  0
    4.3285    2.1084   -0.6399 C   0  0  0  0  0  0  0  0  0  0  0  0
    3.4580    2.7175   -0.9617 H   0  0  0  0  0  0  0  0  0  0  0  0
    5.0919    2.1794   -1.4406 H   0  0  0  0  0  0  0  0  0  0  0  0
    4.7495    2.5875    0.2693 H   0  0  0  0  0  0  0  0  0  0  0  0
    5.1916   -0.1996   -0.0366 C   0  0  0  0  0  0  0  0  0  0  0  0
    4.9155   -1.2608    0.1251 H   0  0  0  0  0  0  0  0  0  0  0  0
    5.6873    0.1661    0.8871 H   0  0  0  0  0  0  0  0  0  0  0  0
    5.9346   -0.1582   -0.8582 H   0  0  0  0  0  0  0  0  0  0  0  0
    1.6259    0.4299   -1.3218 H   0  0  0  0  0  0  0  0  0  0  0  0
  1 17  1  0  0  0  0
  3  5  1  0  0  0  0
  4 18  1  0  0  0  0
  5  7  1  0  0  0  0
  5  6  1  0  0  0  0
  7  8  1  0  0  0  0
  9 10  1  0  0  0  0
  9  7  2  0  0  0  0
 11  9  1  0  0  0  0
 12 11  1  0  0  0  0
 13 11  2  0  0  0  0
 13  3  1  0  0  0  0
 14 13  1  0  0  0  0
 14  4  1  0  0  0  0
 15 14  1  0  0  0  0
 16 14  1  0  0  0  0
 17  2  2  0  0  0  0
 18 19  1  6  0  0  0
 18 20  1  0  0  0  0
 18 17  1  0  0  0  0
 20 21  1  0  0  0  0
 20 22  1  0  0  0  0
 23 29  1  0  0  0  0
 23 20  1  0  0  0  0
 24 23  1  0  0  0  0
 25 23  1  0  0  0  0
 25 28  1  0  0  0  0
 26 25  1  0  0  0  0
 27 25  1  0  0  0  0
 29 30  1  0  0  0  0
 29 31  1  0  0  0  0
 32 29  1  0  0  0  0
 33  4  1  0  0  0  0
M  CHG  1   1  -1
M  END
