1,2,3
q = -1.0, confidence = 0.014

 30 31  0  0  1  0  0  0  0  0999 V2000
    1.4850    1.0201    0.1482 O   0  5  0  0  0  0  0  0  0  0  0  0
   -2.1373    0.2029   -0.0879 N   0  0  0  0  0  2  0  0  0  0  0  0
   -0.0480   -1.2306   -0.0318 N   0  0  0  0  0  2  0  0  0  0  0  0
   -3.1229    1.1216   -0.2322 C   0  0  0  0  0  3  0  0  0  0  0  0
   -2.7757    2.1655   -0.1534 H   0  0  0  0  0  0  0  0  0  0  0  0
   -4.4475    0.7448   -0.4617 C   0  0  0  0  0  0  0  0  0  0  0  0
   -5.2167    1.5219   -0.5751 H   0  0  0  0  0  0  0  0  0  0  0  0
   -4.7699   -0.6189   -0.5502 C   0  0  0  0  0  0  0  0  0  0  0  0
   -5.8036   -0.9427   -0.7410 H   0  0  0  0  0  0  0  0  0  0  0  0
   -3.7461   -1.5637   -0.3913 C   0  0  0  0  0  0  0  0  0  0  0  0
   -3.9528   -2.6425   -0.4481 H   0  0  0  0  0  0  0  0  0  0  0  0
   -2.4388   -1.1222   -0.1589 C   0  0  0  0  0  0  0  0  0  0  0  0
   -1.2684   -2.0370    0.1020 C   0  0  2  0  0  0  0  0  0  0  0  0
   -1.2657   -2.8542   -0.6555 H   0  0  0  0  0  0  0  0  0  0  0  0
   -1.3681   -2.6584    1.5079 C   0  0  0  0  0  0  0  0  0  0  0  0
   -0.5050   -3.3266    1.6960 H   0  0  0  0  0  0  0  0  0  0  0  0
   -2.2998   -3.2476    1.6161 H   0  0  0  0  0  0  0  0  0  0  0  0
   -1.3632   -1.8551    2.2710 H   0  0  0  0  0  0  0  0  0  0  0  0
    1.1049   -1.8505   -0.1685 C   0  0  0  0  0  0  0  0  0  0  0  0
    1.0922   -2.9558   -0.2628 H   0  0  0  0  0  0  0  0  0  0  0  0
    2.3811   -1.2140   -0.1969 C   0  0  0  0  0  0  0  0  0  0  0  0
    3.5578   -1.9987   -0.3782 C   0  0  0  0  0  3  0  0  0  0  0  0
    3.4452   -3.0873   -0.5089 H   0  0  0  0  0  0  0  0  0  0  0  0
    4.8177   -1.4184   -0.3888 C   0  0  0  0  0  0  0  0  0  0  0  0
    5.7166   -2.0355   -0.5295 H   0  0  0  0  0  0  0  0  0  0  0  0
    4.9316   -0.0142   -0.2132 C   0  0  0  0  0  0  0  0  0  0  0  0
    5.9280    0.4549   -0.2200 H   0  0  0  0  0  0  0  0  0  0  0  0
    3.8085    0.7825   -0.0335 C   0  0  0  0  0  0  0  0  0  0  0  0
    3.8779    1.8716    0.1012 H   0  0  0  0  0  0  0  0  0  0  0  0
    2.4957    0.2162   -0.0220 C   0  0  0  0  0  0  0  0  0  0  0  0
  3 13  1  0  0  0  0
  4  5  1  0  0  0  0
  4  2  1  0  0  0  0
  6  4  1  0  0  0  0
  7  6  1  0  0  0  0
  8  6  2  0  0  0  0
  8 10  1  0  0  0  0
  9  8  1  0  0  0  0
 10 12  2  0  0  0  0
 11 10  1  0  0  0  0
 12  2  1  0  0  0  0
 12 13  1  0  0  0  0
 13 14  1  6  0  0  0
 13 15  1  0  0  0  0
 15 17  1  0  0  0  0
 15 16  1  0  0  0  0
 15 18  1  0  0  0  0
 19  3  1  0  0  0  0
 20 19  1  0  0  0  0
 21 19  2  0  0  0  0
 21 30  1  0  0  0  0
 22 21  1  0  0  0  0
 23 22  1  0  0  0  0
 24 22  1  0  0  0  0
 24 26  2  0  0  0  0
 25 24  1  0  0  0  0
 26 28  1  0  0  0  0
 27 26  1  0  0  0  0
 28 30  2  0  0  0  0
 28 29  1  0  0  0  0
 30  1  1  0  0  0  0
M  CHG  1   1  -1
M  END
