1,2,36
q = -1.0, confidence = 0.008

 36 38  0  0  0  0  0  0  0  0999 V2000
    0.7437    1.7925    0.2707 N   0  0  0  0  0  2  0  0  0  0  0  0
   -1.0863    0.7854   -1.3765 N   0  0  0  0  0  2  0  0  0  0  0  0
   -2.5933    0.4414    1.1178 C   0  0  0  0  0  0  0  0  0  0  0  0
   -2.3915    0.8877   -1.2916 C   0  0  0  0  0  3  0  0  0  0  0  0
   -2.9069    1.3345   -2.1639 H   0  0  0  0  0  0  0  0  0  0  0  0
    0.9195    2.1932    1.5511 C   0  0  0  0  0  3  0  0  0  0  0  0
    0.6770    1.4535    2.3226 H   0  0  0  0  0  0  0  0  0  0  0  0
   -3.4356    0.4091    2.2828 C   0  0  0  0  0  0  0  0  0  0  0  0
   -2.9429    0.3975    3.2660 H   0  0  0  0  0  0  0  0  0  0  0  0
    1.3579    3.4733    1.8869 C   0  0  0  0  0  0  0  0  0  0  0  0
    1.4907    3.7419    2.9440 H   0  0  0  0  0  0  0  0  0  0  0  0
   -4.8079    0.4012    2.1656 C   0  0  0  0  0  0  0  0  0  0  0  0
   -5.4329    0.3667    3.0719 H   0  0  0  0  0  0  0  0  0  0  0  0
    0.9647    2.6668   -0.7479 C   0  0  0  0  0  0  0  0  0  0  0  0
    0.8191    2.2260   -2.1808 C   0  0  0  0  0  0  0  0  0  0  0  0
    1.7477    1.6815   -2.4465 H   0  0  0  0  0  0  0  0  0  0  0  0
    0.8097    3.1353   -2.8114 H   0  0  0  0  0  0  0  0  0  0  0  0
   -5.4591    0.4278    0.8911 C   0  0  0  0  0  0  0  0  0  0  0  0
    1.3921    3.9784   -0.4636 C   0  0  0  0  0  0  0  0  0  0  0  0
    1.5601    4.6706   -1.3009 H   0  0  0  0  0  0  0  0  0  0  0  0
   -4.6534    0.4977   -0.2983 C   0  0  0  0  0  0  0  0  0  0  0  0
    1.6025    4.3890    0.8552 C   0  0  0  0  0  0  0  0  0  0  0  0
    1.9417    5.4121    1.0748 H   0  0  0  0  0  0  0  0  0  0  0  0
   -0.4074    1.3517   -2.5368 C   0  0  0  0  0  0  0  0  0  0  0  0
   -1.1394    1.9522   -3.1155 H   0  0  0  0  0  0  0  0  0  0  0  0
   -0.0591    0.5268   -3.1914 H   0  0  0  0  0  0  0  0  0  0  0  0
   -7.5020    0.4093   -0.4520 C   0  0  0  0  0  0  0  0  0  0  0  0
   -8.5989    0.3780   -0.5236 H   0  0  0  0  0  0  0  0  0  0  0  0
   -6.8760    0.3864    0.7879 C   0  0  0  0  0  0  0  0  0  0  0  0
   -7.4704    0.3344    1.7131 H   0  0  0  0  0  0  0  0  0  0  0  0
   -6.7147    0.4624   -1.6260 C   0  0  0  0  0  0  0  0  0  0  0  0
   -7.2040    0.4647   -2.6116 H   0  0  0  0  0  0  0  0  0  0  0  0
   -5.3243    0.4979   -1.5512 C   0  0  0  0  0  0  0  0  0  0  0  0
   -4.7468    0.5012   -2.4871 H   0  0  0  0  0  0  0  0  0  0  0  0
   -3.2062    0.5463   -0.1698 C   0  0  0  0  0  0  0  0  0  0  0  0
   -1.3027    0.4219    1.3194 O   0  5  0  0  0  0  0  0  0  0  0  0
  1  6  1  0  0  0  0
  2  4  1  0  0  0  0
  3 36  1  0  0  0  0
  3  8  1  0  0  0  0
  4 35  1  0  0  0  0
  5  4  1  0  0  0  0
  6 10  1  0  0  0  0
  6  7  1  0  0  0  0
  8  9  1  0  0  0  0
 10 11  1  0  0  0  0
 12  8  2  0  0  0  0
 12 13  1  0  0  0  0
 14 19  2  0  0  0  0
 14  1  1  0  0  0  0
 15 14  1  0  0  0  0
 16 15  1  0  0  0  0
 17 15  1  0  0  0  0
 18 12  1  0  0  0  0
 19 22  1  0  0  0  0
 20 19  1  0  0  0  0
 21 35  1  0  0  0  0
 21 18  2  0  0  0  0
 22 23  1  0  0  0  0
 22 10  2  0  0  0  0
 24 15  1  0  0  0  0
 24  2  1  0  0  0  0
 25 24  1  0  0  0  0
 26 24  1  0  0  0  0
 27 29  2  0  0  0  0
 28 27  1  0  0  0  0
 29 18  1  0  0  0  0
 29 30  1  0  0  0  0
 31 33  2  0  0  0  0
 31 27  1  0  0  0  0
 32 31  1  0  0  0  0
 33 21  1  0  0  0  0
 34 33  1  0  0  0  0
 35  3  2  0  0  0  0
M  CHG  1  36  -1
M  END
