1,2,3
q = -1.0, confidence = 0.084

 68 69  0  0  1  0  0  0  0  0999 V2000
   -0.2699   -1.2285   -0.9817 O   0  5  0  0  0  0  0  0  0  0  0  0
   -1.4585    1.2219    1.0642 N   0  0  0  0  0  0  0  0  0  0  0  0
   -0.0507    1.8251   -1.3904 N   0  0  0  0  0  0  0  0  0  0  0  0
    3.1421   -1.8678    0.2099 C   0  0  0  0  0  0  0  0  0  0  0  0
    3.6961   -2.6419    0.7528 H   0  0  0  0  0  0  0  0  0  0  0  0
   -0.3525    3.2146    2.1934 C   0  0  0  0  0  0  0  0  0  0  0  0
    0.3731    2.5486    2.7066 H   0  0  0  0  0  0  0  0  0  0  0  0
   -1.2240    3.3188    2.8725 H   0  0  0  0  0  0  0  0  0  0  0  0
    3.0986    0.2520   -0.8968 C   0  0  0  0  0  0  0  0  0  0  0  0
    3.5905    1.1702   -1.2605 H   0  0  0  0  0  0  0  0  0  0  0  0
    1.7872   -2.1152   -0.0788 C   0  0  0  0  0  0  0  0  0  0  0  0
    3.8280   -0.6919   -0.1553 C   0  0  0  0  0  0  0  0  0  0  0  0
    1.0334   -1.0945   -0.7551 C   0  0  0  0  0  0  0  0  0  0  0  0
    1.1300   -3.4593    0.2928 C   0  0  0  0  0  0  0  0  0  0  0  0
    1.0396    1.0732   -2.0807 C   0  0  0  0  0  0  0  0  0  0  0  0
    1.7828    1.7882   -2.5052 H   0  0  0  0  0  0  0  0  0  0  0  0
    0.5522    0.5620   -2.9396 H   0  0  0  0  0  0  0  0  0  0  0  0
    5.2979   -0.4228    0.2119 C   0  0  0  0  0  0  0  0  0  0  0  0
    1.7431    0.0667   -1.2106 C   0  0  0  0  0  0  0  0  0  0  0  0
    0.3858    2.4544   -0.1159 C   0  0  1  0  0  0  0  0  0  0  0  0
    1.1240    1.7446    0.3169 H   0  0  0  0  0  0  0  0  0  0  0  0
    1.0929    3.8074   -0.3000 C   0  0  0  0  0  0  0  0  0  0  0  0
    0.4059    4.5200   -0.8050 H   0  0  0  0  0  0  0  0  0  0  0  0
    1.9640    3.6738   -0.9747 H   0  0  0  0  0  0  0  0  0  0  0  0
   -0.0201   -3.2272    1.2974 C   0  0  0  0  0  0  0  0  0  0  0  0
    0.3641   -2.7871    2.2409 H   0  0  0  0  0  0  0  0  0  0  0  0
   -0.5170   -4.1886    1.5472 H   0  0  0  0  0  0  0  0  0  0  0  0
   -0.7702   -2.5422    0.8649 H   0  0  0  0  0  0  0  0  0  0  0  0
    6.1284   -0.2204   -1.0756 C   0  0  0  0  0  0  0  0  0  0  0  0
    6.0900   -1.1258   -1.7143 H   0  0  0  0  0  0  0  0  0  0  0  0
    7.1915   -0.0141   -0.8302 H   0  0  0  0  0  0  0  0  0  0  0  0
    5.7516    0.6306   -1.6775 H   0  0  0  0  0  0  0  0  0  0  0  0
   -0.7956    2.5532    0.8762 C   0  0  1  0  0  0  0  0  0  0  0  0
   -1.5734    3.1990    0.4120 H   0  0  0  0  0  0  0  0  0  0  0  0
    1.5292    4.4158    1.0351 C   0  0  0  0  0  0  0  0  0  0  0  0
    2.2869    3.7580    1.5164 H   0  0  0  0  0  0  0  0  0  0  0  0
    2.0244    5.3939    0.8645 H   0  0  0  0  0  0  0  0  0  0  0  0
   -0.7392    2.7239   -2.3308 C   0  0  0  0  0  0  0  0  0  0  0  0
   -1.2673    2.1113   -3.0862 H   0  0  0  0  0  0  0  0  0  0  0  0
   -0.0374    3.4228   -2.8385 H   0  0  0  0  0  0  0  0  0  0  0  0
   -1.5185    3.3047   -1.8027 H   0  0  0  0  0  0  0  0  0  0  0  0
   -0.7545    0.3167    1.9907 C   0  0  0  0  0  0  0  0  0  0  0  0
   -1.2321   -0.6786    1.9406 H   0  0  0  0  0  0  0  0  0  0  0  0
   -0.7958    0.6698    3.0446 H   0  0  0  0  0  0  0  0  0  0  0  0
    0.3027    0.1932    1.6863 H   0  0  0  0  0  0  0  0  0  0  0  0
    0.3229    4.5703    1.9656 C   0  0  0  0  0  0  0  0  0  0  0  0
   -0.4032    5.2829    1.5143 H   0  0  0  0  0  0  0  0  0  0  0  0
    0.6272    5.0075    2.9389 H   0  0  0  0  0  0  0  0  0  0  0  0
    5.3768    0.8561    1.0777 C   0  0  0  0  0  0  0  0  0  0  0  0
    4.9704    1.7371    0.5408 H   0  0  0  0  0  0  0  0  0  0  0  0
    6.4281    1.0841    1.3534 H   0  0  0  0  0  0  0  0  0  0  0  0
    4.7935    0.7335    2.0133 H   0  0  0  0  0  0  0  0  0  0  0  0
    2.1250   -4.4414    0.9371 C   0  0  0  0  0  0  0  0  0  0  0  0
    2.9756   -4.6730    0.2645 H   0  0  0  0  0  0  0  0  0  0  0  0
    1.6067   -5.3962    1.1601 H   0  0  0  0  0  0  0  0  0  0  0  0
    2.5354   -4.0564    1.8931 H   0  0  0  0  0  0  0  0  0  0  0  0
   -2.8762    1.3755    1.4443 C   0  0  0  0  0  0  0  0  0  0  0  0
   -3.4293    1.8295    0.5998 H   0  0  0  0  0  0  0  0  0  0  0  0
   -2.9980    1.9865    2.3673 H   0  0  0  0  0  0  0  0  0  0  0  0
   -3.3143    0.3766    1.6267 H   0  0  0  0  0  0  0  0  0  0  0  0
    0.5749   -4.1212   -0.9908 C   0  0  0  0  0  0  0  0  0  0  0  0
   -0.1478   -3.4531   -1.4951 H   0  0  0  0  0  0  0  0  0  0  0  0
    0.0665   -5.0771   -0.7437 H   0  0  0  0  0  0  0  0  0  0  0  0
    1.3984   -4.3445   -1.6993 H   0  0  0  0  0  0  0  0  0  0  0  0
    5.9186   -1.5832    1.0088 C   0  0  0  0  0  0  0  0  0  0  0  0
    5.3799   -1.7634    1.9610 H   0  0  0  0  0  0  0  0  0  0  0  0
    6.9730   -1.3485    1.2595 H   0  0  0  0  0  0  0  0  0  0  0  0
    5.9149   -2.5281    0.4290 H   0  0  0  0  0  0  0  0  0  0  0  0
  1 13  1  0  0  0  0
  2 57  1  0  0  0  0
  2 42  1  0  0  0  0
  3 20  1  0  0  0  0
  4  5  1  0  0  0  0
  6  7  1  0  0  0  0
  6  8  1  0  0  0  0
  9 12  1  0  0  0  0
 10  9  1  0  0  0  0
 11  4  1  0  0  0  0
 11 14  1  0  0  0  0
 12  4  2  0  0  0  0
 12 18  1  0  0  0  0
 13 11  2  0  0  0  0
 14 53  1  0  0  0  0
 14 25  1  0  0  0  0
 15  3  1  0  0  0  0
 15 19  1  0  0  0  0
 16 15  1  0  0  0  0
 17 15  1  0  0  0  0
 18 65  1  0  0  0  0
 18 49  1  0  0  0  0
 19  9  2  0  0  0  0
 19 13  1  0  0  0  0
 20 21  1  1  0  0  0
 20 33  1  0  0  0  0
 22 20  1  0  0  0  0
 22 35  1  0  0  0  0
 23 22  1  0  0  0  0
 24 22  1  0  0  0  0
 25 27  1  0  0  0  0
 25 26  1  0  0  0  0
 28 25  1  0  0  0  0
 29 31  1  0  0  0  0
 29 18  1  0  0  0  0
 30 29  1  0  0  0  0
 32 29  1  0  0  0  0
 33 34  1  6  0  0  0
 33  2  1  0  0  0  0
 33  6  1  0  0  0  0
 35 36  1  0  0  0  0
 35 46  1  0  0  0  0
 37 35  1  0  0  0  0
 38 41  1  0  0  0  0
 38  3  1  0  0  0  0
 39 38  1  0  0  0  0
 40 38  1  0  0  0  0
 42 44  1  0  0  0  0
 43 42  1  0  0  0  0
 45 42  1  0  0  0  0
 46  6  1  0  0  0  0
 46 48  1  0  0  0  0
 47 46  1  0  0  0  0
 49 51  1  0  0  0  0
 49 52  1  0  0  0  0
 50 49  1  0  0  0  0
 53 55  1  0  0  0  0
 53 56  1  0  0  0  0
 54 53  1  0  0  0  0
 57 60  1  0  0  0  0
 57 59  1  0  0  0  0
 58 57  1  0  0  0  0
 61 63  1  0  0  0  0
 61 14  1  0  0  0  0
 62 61  1  0  0  0  0
 64 61  1  0  0  0  0
 65 67  1  0  0  0  0
 65 66  1  0  0  0  0
 68 65  1  0  0  0  0
M  CHG  1   1  -1
M  END
