1,3,4
q = 0.0, confidence = 0.958

 28 29  0  0  1  0  0  0  0  0999 V2000
   -1.2344   -0.8810   -0.2814 O   0  0  0  0  0  1  0  0  0  0  0  0
   -1.1123    1.3722   -0.2083 N   0  0  0  0  0  0  0  0  0  0  0  0
    0.2385    1.1587   -0.2277 N   0  0  0  0  0  2  0  0  0  0  0  0
    2.5026    0.2116   -0.0819 N   0  0  0  0  0  2  0  0  0  0  0  0
   -1.8513    0.2127   -0.1937 C   0  0  1  0  0  3  0  0  0  0  0  0
   -3.3186    0.2929   -0.0982 C   0  0  0  0  0  0  0  0  0  0  0  0
   -4.0425    1.4690   -0.3993 C   0  0  0  0  0  0  0  0  0  0  0  0
   -3.5235    2.3685   -0.7657 H   0  0  0  0  0  0  0  0  0  0  0  0
   -5.4371    1.4850   -0.2763 C   0  0  0  0  0  0  0  0  0  0  0  0
   -5.9968    2.4006   -0.5186 H   0  0  0  0  0  0  0  0  0  0  0  0
   -6.1200    0.3306    0.1420 C   0  0  0  0  0  0  0  0  0  0  0  0
   -7.2161    0.3466    0.2389 H   0  0  0  0  0  0  0  0  0  0  0  0
   -5.4050   -0.8447    0.4315 C   0  0  0  0  0  0  0  0  0  0  0  0
   -5.9399   -1.7487    0.7586 H   0  0  0  0  0  0  0  0  0  0  0  0
   -4.0118   -0.8684    0.3108 C   0  0  0  0  0  0  0  0  0  0  0  0
   -3.4279   -1.7716    0.5391 H   0  0  0  0  0  0  0  0  0  0  0  0
    1.1418    2.1289   -0.1412 C   0  0  0  0  0  0  0  0  0  0  0  0
    0.8911    3.2003   -0.1252 H   0  0  0  0  0  0  0  0  0  0  0  0
    2.4759    1.5973   -0.0661 C   0  0  0  0  0  0  0  0  0  0  0  0
    3.6661    2.3452    0.0215 C   0  0  0  0  0  0  0  0  0  0  0  0
    3.6125    3.4435    0.0253 H   0  0  0  0  0  0  0  0  0  0  0  0
    4.8906    1.6755    0.1116 C   0  0  0  0  0  0  0  0  0  0  0  0
    5.8299    2.2431    0.1859 H   0  0  0  0  0  0  0  0  0  0  0  0
    4.8990    0.2689    0.1135 C   0  0  0  0  0  0  0  0  0  0  0  0
    5.8377   -0.2971    0.1936 H   0  0  0  0  0  0  0  0  0  0  0  0
    3.6867   -0.4251    0.0194 C   0  0  0  0  0  0  0  0  0  0  0  0
    3.6163   -1.5249    0.0232 H   0  0  0  0  0  0  0  0  0  0  0  0
   -1.4885    2.2778    0.0876 H   0  0  0  0  0  0  0  0  0  0  0  0
  2  5  1  0  0  0  0
  2 28  1  0  0  0  0
  3  2  1  0  0  0  0
  3 17  1  0  0  0  0
  4 19  1  0  0  0  0
  4 26  1  0  0  0  0
  5  1  1  6  0  0  0
  5  6  1  0  0  0  0
  6 15  1  0  0  0  0
  7  9  1  0  0  0  0
  7  6  2  0  0  0  0
  8  7  1  0  0  0  0
  9 11  2  0  0  0  0
 10  9  1  0  0  0  0
 11 12  1  0  0  0  0
 11 13  1  0  0  0  0
 13 14  1  0  0  0  0
 15 13  2  0  0  0  0
 15 16  1  0  0  0  0
 17 18  1  0  0  0  0
 17 19  2  0  0  0  0
 19 20  1  0  0  0  0
 20 21  1  0  0  0  0
 20 22  2  0  0  0  0
 22 24  1  0  0  0  0
 22 23  1  0  0  0  0
 24 25  1  0  0  0  0
 26 27  1  0  0  0  0
 26 24  2  0  0  0  0
M  END
