1,2,5
q = -2.0, confidence = 0.944

 26 27  0  0  0  0  0  0  0  0999 V2000
    1.1720   -0.7619   -0.0114 O   0  5  0  0  0  0  0  0  0  0  0  0
    1.7007    2.1015    0.0287 N   0  0  0  0  0  2  0  0  0  0  0  0
    1.3721    3.4111    0.0463 N   0  0  0  0  0  0  0  0  0  0  0  0
    2.0969    4.1332    0.0311 H   0  0  0  0  0  0  0  0  0  0  0  0
   -0.8151    2.7072   -0.0168 N   0  0  0  0  0  2  0  0  0  0  0  0
   -1.8093    2.9319   -0.1067 H   0  0  0  0  0  0  0  0  0  0  0  0
    2.9428    1.6781    0.0388 C   0  0  0  0  0  0  0  0  0  0  0  0
    3.7129    2.4687    0.0613 H   0  0  0  0  0  0  0  0  0  0  0  0
    0.0026    3.7941   -0.0131 C   0  0  0  0  0  0  0  0  0  0  0  0
   -0.3085    4.9845   -0.0482 O   0  0  0  0  0  0  0  0  0  0  0  0
    2.4826   -0.8073   -0.0077 C   0  0  0  0  0  0  0  0  0  0  0  0
    3.0308   -2.1397   -0.0352 C   0  0  0  0  0  0  0  0  0  0  0  0
    2.3008   -2.9618   -0.0668 H   0  0  0  0  0  0  0  0  0  0  0  0
    4.3827   -2.3750   -0.0289 C   0  0  0  0  0  0  0  0  0  0  0  0
    4.7664   -3.4074   -0.0509 H   0  0  0  0  0  0  0  0  0  0  0  0
    5.3213   -1.2963    0.0042 C   0  0  0  0  0  0  0  0  0  0  0  0
    6.7190   -1.5539    0.0122 C   0  0  0  0  0  3  0  0  0  0  0  0
    7.0537   -2.6032   -0.0070 H   0  0  0  0  0  0  0  0  0  0  0  0
    7.6445   -0.5194    0.0433 C   0  0  0  0  0  0  0  0  0  0  0  0
    8.7240   -0.7311    0.0493 H   0  0  0  0  0  0  0  0  0  0  0  0
    7.1757    0.8143    0.0673 C   0  0  0  0  0  0  0  0  0  0  0  0
    7.8938    1.6482    0.0925 H   0  0  0  0  0  0  0  0  0  0  0  0
    5.8120    1.0909    0.0596 C   0  0  0  0  0  0  0  0  0  0  0  0
    5.5117    2.1473    0.0799 H   0  0  0  0  0  0  0  0  0  0  0  0
    4.8286    0.0579    0.0280 C   0  0  0  0  0  0  0  0  0  0  0  0
    3.3887    0.3100    0.0202 C   0  0  0  0  0  0  0  0  0  0  0  0
  1 11  1  0  0  0  0
  2  7  1  0  0  0  0
  2  3  1  0  0  0  0
  4  3  1  0  0  0  0
  5  9  1  0  0  0  0
  6  5  1  0  0  0  0
  7  8  1  0  0  0  0
  9  3  1  0  0  0  0
 10  9  2  0  0  0  0
 11 26  1  0  0  0  0
 12 14  1  0  0  0  0
 12 11  2  0  0  0  0
 13 12  1  0  0  0  0
 14 16  2  0  0  0  0
 15 14  1  0  0  0  0
 16 17  1  0  0  0  0
 16 25  1  0  0  0  0
 17 19  1  0  0  0  0
 18 17  1  0  0  0  0
 19 20  1  0  0  0  0
 19 21  2  0  0  0  0
 21 22  1  0  0  0  0
 23 21  1  0  0  0  0
 23 24  1  0  0  0  0
 25 23  2  0  0  0  0
 26 25  1  0  0  0  0
 26  7  2  0  0  0  0
M  CHG  1   1  -1
M  END
