1,2,4
q = -1.0, confidence = 0.0

 26 27  0  0  0  0  0  0  0  0999 V2000
   -1.6892   -0.3867   -1.6608 O   0  5  0  0  0  0  0  0  0  0  0  0
    1.0384    1.5323    1.2575 N   0  0  0  0  0  2  0  0  0  0  0  0
   -0.9983    2.6693    1.2132 N   0  0  0  0  0  0  0  0  0  0  0  0
   -1.5031    1.7857    0.3172 N   0  0  0  0  0  2  0  0  0  0  0  0
    2.3215    1.4391    1.6554 C   0  0  0  0  0  3  0  0  0  0  0  0
    2.8789    0.5732    1.2621 H   0  0  0  0  0  0  0  0  0  0  0  0
    2.9257    2.3693    2.5029 C   0  0  0  0  0  0  0  0  0  0  0  0
    3.9765    2.2529    2.7999 H   0  0  0  0  0  0  0  0  0  0  0  0
    2.1446    3.4560    2.9514 C   0  0  0  0  0  0  0  0  0  0  0  0
    2.5770    4.2149    3.6210 H   0  0  0  0  0  0  0  0  0  0  0  0
    0.8222    3.5764    2.5364 C   0  0  0  0  0  0  0  0  0  0  0  0
    0.1939    4.4205    2.8589 H   0  0  0  0  0  0  0  0  0  0  0  0
    0.2966    2.5828    1.6673 C   0  0  0  0  0  0  0  0  0  0  0  0
   -2.7460    1.9488   -0.0683 C   0  0  0  0  0  3  0  0  0  0  0  0
   -3.3171    2.7999    0.3739 H   0  0  0  0  0  0  0  0  0  0  0  0
   -3.4760    1.1439   -1.0049 C   0  0  0  0  0  0  0  0  0  0  0  0
   -2.9046    0.0257   -1.7550 C   0  0  0  0  0  0  0  0  0  0  0  0
   -3.7971   -0.6447   -2.6654 C   0  0  0  0  0  0  0  0  0  0  0  0
   -3.3650   -1.4819   -3.2334 H   0  0  0  0  0  0  0  0  0  0  0  0
   -5.1225   -0.2690   -2.8247 C   0  0  0  0  0  0  0  0  0  0  0  0
   -5.7603   -0.8209   -3.5340 H   0  0  0  0  0  0  0  0  0  0  0  0
   -5.6673    0.8164   -2.0907 C   0  0  0  0  0  0  0  0  0  0  0  0
   -6.7177    1.1131   -2.2234 H   0  0  0  0  0  0  0  0  0  0  0  0
   -4.8444    1.4994   -1.2074 C   0  0  0  0  0  0  0  0  0  0  0  0
   -5.2464    2.3512   -0.6325 H   0  0  0  0  0  0  0  0  0  0  0  0
   -1.5720    3.4695    1.5065 H   0  0  0  0  0  0  0  0  0  0  0  0
  2  5  1  0  0  0  0
  2 13  1  0  0  0  0
  3 26  1  0  0  0  0
  3 13  1  0  0  0  0
  4  3  1  0  0  0  0
  5  7  1  0  0  0  0
  6  5  1  0  0  0  0
  7  8  1  0  0  0  0
  7  9  2  0  0  0  0
  9 10  1  0  0  0  0
 11 12  1  0  0  0  0
 11  9  1  0  0  0  0
 13 11  2  0  0  0  0
 14  4  1  0  0  0  0
 14 15  1  0  0  0  0
 16 14  1  0  0  0  0
 17  1  1  0  0  0  0
 17 16  2  0  0  0  0
 18 17  1  0  0  0  0
 19 18  1  0  0  0  0
 20 18  2  0  0  0  0
 20 22  1  0  0  0  0
 21 20  1  0  0  0  0
 22 24  2  0  0  0  0
 23 22  1  0  0  0  0
 24 16  1  0  0  0  0
 24 25  1  0  0  0  0
M  CHG  1   1  -1
M  END
