1,3,5
q = -1.0, confidence = 0.078

 72 74  0  0  1  0  0  0  0  0999 V2000
   -0.3236    1.1555   -1.0151 O   0  5  0  0  0  0  0  0  0  0  0  0
   -5.0495   -0.9670    0.9068 O   0  0  0  0  0  0  0  0  0  0  0  0
    1.5149   -2.1623   -0.3474 N   0  0  0  0  0  0  0  0  0  0  0  0
   -1.2023   -2.1051   -0.3996 N   0  0  0  0  0  0  0  0  0  0  0  0
    0.9886    0.0085    1.0545 N   0  0  0  0  0  2  0  0  0  0  0  0
   -2.9021   -0.6785    0.1440 N   0  0  0  0  0  0  0  0  0  0  0  0
   -2.1575   -0.0004   -0.0688 H   0  0  0  0  0  0  0  0  0  0  0  0
    0.5755    2.3649    0.7822 N   0  0  0  0  0  0  0  0  0  0  0  0
    0.8019   -3.2941   -1.0001 C   0  0  0  0  0  0  0  0  0  0  0  0
    1.2939   -4.2592   -0.7444 H   0  0  0  0  0  0  0  0  0  0  0  0
    0.8839   -3.1148   -2.0935 H   0  0  0  0  0  0  0  0  0  0  0  0
   -0.6617   -3.3126   -0.6210 C   0  0  0  0  0  0  0  0  0  0  0  0
   -1.4112   -4.4943   -0.5228 C   0  0  0  0  0  0  0  0  0  0  0  0
   -0.9433   -5.4743   -0.6966 H   0  0  0  0  0  0  0  0  0  0  0  0
   -2.7734   -4.3794   -0.1928 C   0  0  0  0  0  0  0  0  0  0  0  0
   -3.3980   -5.2818   -0.1100 H   0  0  0  0  0  0  0  0  0  0  0  0
   -3.3449   -3.1258    0.0428 C   0  0  0  0  0  0  0  0  0  0  0  0
   -4.3964   -2.9870    0.3188 H   0  0  0  0  0  0  0  0  0  0  0  0
   -2.5012   -1.9943   -0.0704 C   0  0  0  0  0  0  0  0  0  0  0  0
   -4.1194   -0.2167    0.6272 C   0  0  0  0  0  0  0  0  0  0  0  0
   -4.1979    1.3205    0.7740 C   0  0  0  0  0  0  0  0  0  0  0  0
   -4.0294    1.9565   -0.6227 C   0  0  0  0  0  0  0  0  0  0  0  0
   -3.0377    1.7356   -1.0645 H   0  0  0  0  0  0  0  0  0  0  0  0
   -4.1264    3.0591   -0.5509 H   0  0  0  0  0  0  0  0  0  0  0  0
   -4.8070    1.5918   -1.3237 H   0  0  0  0  0  0  0  0  0  0  0  0
   -3.0856    1.8123    1.7259 C   0  0  0  0  0  0  0  0  0  0  0  0
   -2.0667    1.6217    1.3353 H   0  0  0  0  0  0  0  0  0  0  0  0
   -3.1677    1.3294    2.7205 H   0  0  0  0  0  0  0  0  0  0  0  0
   -3.1719    2.9082    1.8718 H   0  0  0  0  0  0  0  0  0  0  0  0
   -5.5741    1.6759    1.3517 C   0  0  0  0  0  0  0  0  0  0  0  0
   -5.6660    2.7755    1.4558 H   0  0  0  0  0  0  0  0  0  0  0  0
   -5.7216    1.2128    2.3465 H   0  0  0  0  0  0  0  0  0  0  0  0
   -6.3880    1.3117    0.6961 H   0  0  0  0  0  0  0  0  0  0  0  0
    1.4991   -2.3312    1.1362 C   0  0  0  0  0  0  0  0  0  0  0  0
    2.3511   -2.9610    1.4724 H   0  0  0  0  0  0  0  0  0  0  0  0
    0.5685   -2.8760    1.3969 H   0  0  0  0  0  0  0  0  0  0  0  0
    1.4798   -0.9998    1.8275 C   0  0  2  0  0  3  0  0  0  0  0  0
    1.8736   -0.8075    3.1491 C   0  0  0  0  0  0  0  0  0  0  0  0
    2.2769   -1.6484    3.7302 H   0  0  0  0  0  0  0  0  0  0  0  0
    1.7548    0.4845    3.6993 C   0  0  0  0  0  0  0  0  0  0  0  0
    2.0471    0.6733    4.7430 H   0  0  0  0  0  0  0  0  0  0  0  0
    1.2918    1.5235    2.9011 C   0  0  0  0  0  0  0  0  0  0  0  0
    1.2094    2.5557    3.2656 H   0  0  0  0  0  0  0  0  0  0  0  0
    0.9267    1.2963    1.5437 C   0  0  0  0  0  0  0  0  0  0  0  0
    0.0430    2.2459   -0.4226 C   0  0  0  0  0  0  0  0  0  0  0  0
   -0.1495    3.5501   -1.2251 C   0  0  0  0  0  0  0  0  0  0  0  0
   -0.8404    3.2761   -2.5690 C   0  0  0  0  0  0  0  0  0  0  0  0
   -1.8777    2.9161   -2.4280 H   0  0  0  0  0  0  0  0  0  0  0  0
   -0.3002    2.5013   -3.1460 H   0  0  0  0  0  0  0  0  0  0  0  0
   -0.8817    4.2098   -3.1658 H   0  0  0  0  0  0  0  0  0  0  0  0
   -0.9546    4.5594   -0.3855 C   0  0  0  0  0  0  0  0  0  0  0  0
   -1.9825    4.1904   -0.1968 H   0  0  0  0  0  0  0  0  0  0  0  0
   -1.0323    5.5274   -0.9221 H   0  0  0  0  0  0  0  0  0  0  0  0
   -0.4642    4.7273    0.5923 H   0  0  0  0  0  0  0  0  0  0  0  0
    1.2691    4.1096   -1.4835 C   0  0  0  0  0  0  0  0  0  0  0  0
    1.8623    3.4067   -2.1034 H   0  0  0  0  0  0  0  0  0  0  0  0
    1.8030    4.2741   -0.5276 H   0  0  0  0  0  0  0  0  0  0  0  0
    1.2016    5.0730   -2.0298 H   0  0  0  0  0  0  0  0  0  0  0  0
    2.9079   -2.0594   -0.9011 C   0  0  0  0  0  0  0  0  0  0  0  0
    2.7745   -1.9910   -1.9985 H   0  0  0  0  0  0  0  0  0  0  0  0
    3.4513   -2.9999   -0.6530 H   0  0  0  0  0  0  0  0  0  0  0  0
    3.6603   -0.8573   -0.3879 C   0  0  0  0  0  0  0  0  0  0  0  0
    4.5103   -0.9531    0.7280 C   0  0  0  0  0  0  0  0  0  0  0  0
    4.6894   -1.9363    1.1927 H   0  0  0  0  0  0  0  0  0  0  0  0
    5.1235    0.1921    1.2623 C   0  0  0  0  0  0  0  0  0  0  0  0
    5.7778    0.1049    2.1428 H   0  0  0  0  0  0  0  0  0  0  0  0
    4.8934    1.4444    0.6744 C   0  0  0  0  0  0  0  0  0  0  0  0
    5.3637    2.3458    1.0958 H   0  0  0  0  0  0  0  0  0  0  0  0
    4.0691    1.5459   -0.4591 C   0  0  0  0  0  0  0  0  0  0  0  0
    3.8962    2.5255   -0.9283 H   0  0  0  0  0  0  0  0  0  0  0  0
    3.4557    0.4033   -0.9911 C   0  0  0  0  0  0  0  0  0  0  0  0
    2.8028    0.4723   -1.8760 H   0  0  0  0  0  0  0  0  0  0  0  0
  1 45  1  0  0  0  0
  3 34  1  0  0  0  0
  4 19  1  0  0  0  0
  5 44  1  0  0  0  0
  5 37  1  0  0  0  0
  6 20  1  0  0  0  0
  7  6  1  0  0  0  0
  8 44  1  0  0  0  0
  9 10  1  0  0  0  0
  9 12  1  0  0  0  0
  9  3  1  0  0  0  0
 11  9  1  0  0  0  0
 12 13  1  0  0  0  0
 12  4  2  0  0  0  0
 13 15  2  0  0  0  0
 14 13  1  0  0  0  0
 15 16  1  0  0  0  0
 15 17  1  0  0  0  0
 17 18  1  0  0  0  0
 19 17  2  0  0  0  0
 19  6  1  0  0  0  0
 20 21  1  0  0  0  0
 20  2  2  0  0  0  0
 21 30  1  0  0  0  0
 21 26  1  0  0  0  0
 22 24  1  0  0  0  0
 22 21  1  0  0  0  0
 23 22  1  0  0  0  0
 25 22  1  0  0  0  0
 26 29  1  0  0  0  0
 26 28  1  0  0  0  0
 27 26  1  0  0  0  0
 30 31  1  0  0  0  0
 30 32  1  0  0  0  0
 33 30  1  0  0  0  0
 34 36  1  0  0  0  0
 34 35  1  0  0  0  0
 37 34  1  1  0  0  0
 37 38  1  0  0  0  0
 38 40  2  0  0  0  0
 38 39  1  0  0  0  0
 40 41  1  0  0  0  0
 42 43  1  0  0  0  0
 42 40  1  0  0  0  0
 44 42  2  0  0  0  0
 45  8  2  0  0  0  0
 46 45  1  0  0  0  0
 46 51  1  0  0  0  0
 47 48  1  0  0  0  0
 47 46  1  0  0  0  0
 49 47  1  0  0  0  0
 50 47  1  0  0  0  0
 51 52  1  0  0  0  0
 51 54  1  0  0  0  0
 53 51  1  0  0  0  0
 55 46  1  0  0  0  0
 55 57  1  0  0  0  0
 56 55  1  0  0  0  0
 58 55  1  0  0  0  0
 59 61  1  0  0  0  0
 59 62  1  0  0  0  0
 59  3  1  0  0  0  0
 60 59  1  0  0  0  0
 62 63  1  0  0  0  0
 63 64  1  0  0  0  0
 63 65  2  0  0  0  0
 65 66  1  0  0  0  0
 67 68  1  0  0  0  0
 67 65  1  0  0  0  0
 69 67  2  0  0  0  0
 70 69  1  0  0  0  0
 71 69  1  0  0  0  0
 71 62  2  0  0  0  0
 72 71  1  0  0  0  0
M  CHG  1   1  -1
M  END
