1,2,3
q = -1.0, confidence = 0.02

 24 25  0  0  0  0  0  0  0  0999 V2000
    0.5130    1.6505   -1.3100 O   0  5  0  0  0  0  0  0  0  0  0  0
   -1.2709    0.2331   -0.1533 N   0  0  0  0  0  2  0  0  0  0  0  0
   -0.3200   -1.8989   -1.0312 N   0  0  0  0  0  2  0  0  0  0  0  0
   -0.5004    2.3553   -0.7940 C   0  0  0  0  0  0  0  0  0  0  0  0
   -0.5823    3.7585   -0.8836 C   0  0  0  0  0  0  0  0  0  0  0  0
   -1.6573    4.4336   -0.2854 C   0  0  0  0  0  0  0  0  0  0  0  0
   -2.6491    3.7149    0.4046 C   0  0  0  0  0  0  0  0  0  0  0  0
   -2.5896    2.3137    0.4897 C   0  0  0  0  0  0  0  0  0  0  0  0
   -1.5276    1.6114   -0.1175 C   0  0  0  0  0  0  0  0  0  0  0  0
   -2.1922   -0.8096   -0.1091 C   0  0  0  0  0  0  0  0  0  0  0  0
   -3.5484   -0.8065    0.2899 C   0  0  0  0  0  0  0  0  0  0  0  0
   -4.3036   -1.9863    0.2297 C   0  0  0  0  0  0  0  0  0  0  0  0
   -3.7319   -3.1875   -0.2351 C   0  0  0  0  0  0  0  0  0  0  0  0
   -2.3986   -3.2115   -0.6581 C   0  0  0  0  0  0  0  0  0  0  0  0
   -1.6216   -2.0327   -0.6090 C   0  0  0  0  0  0  0  0  0  0  0  0
    0.2143    4.2987   -1.4169 H   0  0  0  0  0  0  0  0  0  0  0  0
   -1.7142    5.5313   -0.3455 H   0  0  0  0  0  0  0  0  0  0  0  0
   -3.4760    4.2497    0.8955 H   0  0  0  0  0  0  0  0  0  0  0  0
   -3.3519    1.7826    1.0715 H   0  0  0  0  0  0  0  0  0  0  0  0
   -4.0273    0.1131    0.6418 H   0  0  0  0  0  0  0  0  0  0  0  0
   -5.3559   -1.9679    0.5509 H   0  0  0  0  0  0  0  0  0  0  0  0
   -4.3344   -4.1079   -0.2684 H   0  0  0  0  0  0  0  0  0  0  0  0
   -1.9423   -4.1411   -1.0352 H   0  0  0  0  0  0  0  0  0  0  0  0
    0.0681   -2.7567   -1.4441 H   0  0  0  0  0  0  0  0  0  0  0  0
  1  4  1  0  0  0  0
  2  9  1  0  0  0  0
  2 10  1  0  0  0  0
  3 15  1  0  0  0  0
  4  9  1  0  0  0  0
  5  4  2  0  0  0  0
  5  6  1  0  0  0  0
  6  7  2  0  0  0  0
  7  8  1  0  0  0  0
  7 18  1  0  0  0  0
  8 19  1  0  0  0  0
  9  8  2  0  0  0  0
 10 11  1  0  0  0  0
 11 20  1  0  0  0  0
 12 11  2  0  0  0  0
 12 21  1  0  0  0  0
 13 12  1  0  0  0  0
 14 15  1  0  0  0  0
 14 13  2  0  0  0  0
 15 10  2  0  0  0  0
 16  5  1  0  0  0  0
 17  6  1  0  0  0  0
 22 13  1  0  0  0  0
 23 14  1  0  0  0  0
 24  3  1  0  0  0  0
M  CHG  1   1  -1
M  END
