1,2,3
q = -1.0, confidence = 0.006

 26 27  0  0  0  0  0  0  0  0999 V2000
   -1.2677    1.1219    2.0405 O   0  5  0  0  0  0  0  0  0  0  0  0
    1.4717   -0.4488   -0.8211 N   0  0  0  0  0  2  0  0  0  0  0  0
    0.9913    1.8504    0.9643 N   0  0  0  0  0  2  0  0  0  0  0  0
    0.3505    2.7794    1.6976 N   0  0  0  0  0  0  0  0  0  0  0  0
    1.1557   -1.5601   -1.4822 C   0  0  0  0  0  0  0  0  0  0  0  0
    0.1195   -1.9169   -1.3581 H   0  0  0  0  0  0  0  0  0  0  0  0
    2.0703   -2.2731   -2.2899 C   0  0  0  0  0  0  0  0  0  0  0  0
    1.7498   -3.1895   -2.8056 H   0  0  0  0  0  0  0  0  0  0  0  0
    3.3620   -1.7879   -2.3976 C   0  0  0  0  0  0  0  0  0  0  0  0
    4.1167   -2.3089   -3.0077 H   0  0  0  0  0  0  0  0  0  0  0  0
    3.7329   -0.5923   -1.7214 C   0  0  0  0  0  0  0  0  0  0  0  0
    5.0456   -0.0548   -1.8368 C   0  0  0  0  0  3  0  0  0  0  0  0
    5.7888   -0.5897   -2.4472 H   0  0  0  0  0  0  0  0  0  0  0  0
    5.3625    1.1307   -1.1903 C   0  0  0  0  0  0  0  0  0  0  0  0
    6.3726    1.5583   -1.2757 H   0  0  0  0  0  0  0  0  0  0  0  0
    4.3887    1.7996   -0.4220 C   0  0  0  0  0  0  0  0  0  0  0  0
    4.6564    2.7441    0.0763 H   0  0  0  0  0  0  0  0  0  0  0  0
    3.0768    1.3151   -0.2493 C   0  0  0  0  0  0  0  0  0  0  0  0
    2.7312    0.0741   -0.9177 C   0  0  0  0  0  0  0  0  0  0  0  0
    2.2055    2.1402    0.5659 C   0  0  0  0  0  3  0  0  0  0  0  0
    2.6169    3.1142    0.8998 H   0  0  0  0  0  0  0  0  0  0  0  0
   -0.8273    2.3045    2.1835 C   0  0  0  0  0  0  0  0  0  0  0  0
   -1.6455    3.2988    2.9674 C   0  0  0  0  0  0  0  0  0  0  0  0
   -2.6555    3.3834    2.5172 H   0  0  0  0  0  0  0  0  0  0  0  0
   -1.1527    4.2871    2.9878 H   0  0  0  0  0  0  0  0  0  0  0  0
   -1.7877    2.9281    4.0029 H   0  0  0  0  0  0  0  0  0  0  0  0
  1 22  1  0  0  0  0
  3  4  1  0  0  0  0
  4 22  2  0  0  0  0
  5  6  1  0  0  0  0
  5  2  1  0  0  0  0
  7  5  2  0  0  0  0
  8  7  1  0  0  0  0
  9  7  1  0  0  0  0
  9 11  2  0  0  0  0
 10  9  1  0  0  0  0
 11 19  1  0  0  0  0
 12 11  1  0  0  0  0
 12 14  1  0  0  0  0
 13 12  1  0  0  0  0
 14 16  2  0  0  0  0
 15 14  1  0  0  0  0
 16 18  1  0  0  0  0
 16 17  1  0  0  0  0
 18 20  1  0  0  0  0
 19  2  1  0  0  0  0
 19 18  2  0  0  0  0
 20 21  1  0  0  0  0
 20  3  1  0  0  0  0
 22 23  1  0  0  0  0
 23 25  1  0  0  0  0
 23 26  1  0  0  0  0
 24 23  1  0  0  0  0
M  CHG  1   1  -1
M  END
