1,2,5
q = 0.0, confidence = 0.934

 32 34  0  0  1  0  0  0  0  0999 V2000
   -1.2882   -0.0155   -0.3541 N   0  0  0  0  0  2  0  0  0  0  0  0
    1.0067    0.8252   -0.5843 N   0  0  0  0  0  2  0  0  0  0  0  0
    0.1420    1.8741   -0.4169 C   0  0  0  0  0  0  0  0  0  0  0  0
   -1.1951    1.3362   -0.2832 C   0  0  0  0  0  0  0  0  0  0  0  0
    2.1895   -1.3092   -0.8598 O   0  0  0  0  0  1  0  0  0  0  0  0
   -2.4179    1.9059   -0.0531 N   0  0  0  0  0  0  0  0  0  0  0  0
   -2.6099   -0.3515   -0.1418 C   0  0  0  0  0  0  0  0  0  0  0  0
    0.6523    3.1834   -0.3882 C   0  0  0  0  0  0  0  0  0  0  0  0
   -0.0180    4.0437   -0.2693 H   0  0  0  0  0  0  0  0  0  0  0  0
    2.9080    2.2761   -0.6374 C   0  0  0  0  0  0  0  0  0  0  0  0
    3.9947    2.4159   -0.7179 H   0  0  0  0  0  0  0  0  0  0  0  0
   -3.2618   -1.5993   -0.1021 C   0  0  0  0  0  0  0  0  0  0  0  0
   -2.6891   -2.5242   -0.2418 H   0  0  0  0  0  0  0  0  0  0  0  0
    2.0404    3.3750   -0.5068 C   0  0  0  0  0  0  0  0  0  0  0  0
    2.4490    4.3952   -0.4891 H   0  0  0  0  0  0  0  0  0  0  0  0
   -3.3401    0.8643    0.0422 C   0  0  0  0  0  0  0  0  0  0  0  0
    2.3596    0.9869   -0.6703 C   0  0  0  0  0  0  0  0  0  0  0  0
   -2.7026    3.3258    0.0792 C   0  0  0  0  0  0  0  0  0  0  0  0
   -3.7887    3.4612    0.2197 H   0  0  0  0  0  0  0  0  0  0  0  0
   -2.4016    3.8735   -0.8354 H   0  0  0  0  0  0  0  0  0  0  0  0
   -2.1824    3.7514    0.9603 H   0  0  0  0  0  0  0  0  0  0  0  0
    3.0067   -0.3294   -0.7777 C   0  0  2  0  0  3  0  0  0  0  0  0
   -4.6381   -1.5925    0.1250 C   0  0  0  0  0  0  0  0  0  0  0  0
   -5.1822   -2.5470    0.1676 H   0  0  0  0  0  0  0  0  0  0  0  0
    4.4535   -0.5322   -1.0575 C   0  0  0  0  0  0  0  0  0  0  0  0
    4.7583   -1.5393   -0.7220 H   0  0  0  0  0  0  0  0  0  0  0  0
    5.0749    0.2255   -0.5467 H   0  0  0  0  0  0  0  0  0  0  0  0
    4.6292   -0.4560   -2.1527 H   0  0  0  0  0  0  0  0  0  0  0  0
   -4.7273    0.8643    0.2632 C   0  0  0  0  0  0  0  0  0  0  0  0
   -5.2988    1.7926    0.4023 H   0  0  0  0  0  0  0  0  0  0  0  0
   -5.3583   -0.3822    0.3029 C   0  0  0  0  0  0  0  0  0  0  0  0
   -6.4431   -0.4255    0.4776 H   0  0  0  0  0  0  0  0  0  0  0  0
  1  4  1  0  0  0  0
  1  7  1  0  0  0  0
  2  3  1  0  0  0  0
  3  8  1  0  0  0  0
  3  4  2  0  0  0  0
  4  6  1  0  0  0  0
  6 16  1  0  0  0  0
  6 18  1  0  0  0  0
  7 12  2  0  0  0  0
  7 16  1  0  0  0  0
  8  9  1  0  0  0  0
 10 14  1  0  0  0  0
 11 10  1  0  0  0  0
 12 23  1  0  0  0  0
 13 12  1  0  0  0  0
 14 15  1  0  0  0  0
 14  8  2  0  0  0  0
 16 29  2  0  0  0  0
 17 10  2  0  0  0  0
 17  2  1  0  0  0  0
 18 19  1  0  0  0  0
 18 21  1  0  0  0  0
 20 18  1  0  0  0  0
 22  5  1  6  0  0  0
 22 17  1  0  0  0  0
 23 24  1  0  0  0  0
 23 31  2  0  0  0  0
 25 22  1  0  0  0  0
 25 26  1  0  0  0  0
 25 27  1  0  0  0  0
 28 25  1  0  0  0  0
 29 31  1  0  0  0  0
 29 30  1  0  0  0  0
 31 32  1  0  0  0  0
M  END
