3,4,5
q = -1.0, confidence = 0.222

 35 35  0  0  0  0  0  0  0  0999 V2000
   -2.2801    1.8469    2.1006 Br  0  0  0  0  0  0  0  0  0  0  0  0
   -2.9836    5.3208   -2.1835 Cl  0  0  0  0  0  0  0  0  0  0  0  0
   -0.8161    0.2637   -0.0195 O   0  5  0  0  0  0  0  0  0  0  0  0
    0.1990   -0.2231   -2.5775 N   0  0  0  0  0  2  0  0  0  0  0  0
    1.3449   -2.6039   -1.8448 N   0  0  0  0  0  0  0  0  0  0  0  0
   -1.0695    1.7616   -1.9203 C   0  0  0  0  0  0  0  0  0  0  0  0
   -1.2617    1.3672   -0.5497 C   0  0  0  0  0  0  0  0  0  0  0  0
   -2.0172    2.2782    0.2598 C   0  0  0  0  0  0  0  0  0  0  0  0
   -2.5341    3.4746   -0.2278 C   0  0  0  0  0  0  0  0  0  0  0  0
   -3.0954    4.1476    0.4346 H   0  0  0  0  0  0  0  0  0  0  0  0
   -2.3289    3.8271   -1.5811 C   0  0  0  0  0  0  0  0  0  0  0  0
   -1.6055    2.9803   -2.4134 C   0  0  0  0  0  0  0  0  0  0  0  0
   -1.4464    3.2555   -3.4658 H   0  0  0  0  0  0  0  0  0  0  0  0
   -0.3427    0.9303   -2.8390 C   0  0  0  0  0  3  0  0  0  0  0  0
   -0.2446    1.3167   -3.8730 H   0  0  0  0  0  0  0  0  0  0  0  0
    0.9778   -0.9180   -3.5963 C   0  0  0  0  0  0  0  0  0  0  0  0
    2.0180   -0.5263   -3.5794 H   0  0  0  0  0  0  0  0  0  0  0  0
    0.5711   -0.7332   -4.6129 H   0  0  0  0  0  0  0  0  0  0  0  0
    0.9471   -2.3980   -3.2686 C   0  0  0  0  0  0  0  0  0  0  0  0
    1.6186   -2.9629   -3.9488 H   0  0  0  0  0  0  0  0  0  0  0  0
   -0.0806   -2.7893   -3.3885 H   0  0  0  0  0  0  0  0  0  0  0  0
    0.9108   -3.9553   -1.3794 C   0  0  0  0  0  0  0  0  0  0  0  0
   -0.1930   -3.9575   -1.4626 H   0  0  0  0  0  0  0  0  0  0  0  0
    1.1624   -4.0177   -0.3043 H   0  0  0  0  0  0  0  0  0  0  0  0
    1.5049   -5.1437   -2.1338 C   0  0  0  0  0  0  0  0  0  0  0  0
    1.2220   -5.1517   -3.2047 H   0  0  0  0  0  0  0  0  0  0  0  0
    1.1113   -6.0793   -1.6899 H   0  0  0  0  0  0  0  0  0  0  0  0
    2.6096   -5.1905   -2.0674 H   0  0  0  0  0  0  0  0  0  0  0  0
    2.8322   -2.4206   -1.7263 C   0  0  0  0  0  0  0  0  0  0  0  0
    3.3012   -2.9812   -2.5653 H   0  0  0  0  0  0  0  0  0  0  0  0
    3.0386   -1.3478   -1.8880 H   0  0  0  0  0  0  0  0  0  0  0  0
    3.4587   -2.8577   -0.4120 C   0  0  0  0  0  0  0  0  0  0  0  0
    2.9792   -2.3800    0.4595 H   0  0  0  0  0  0  0  0  0  0  0  0
    4.5204   -2.5430   -0.4100 H   0  0  0  0  0  0  0  0  0  0  0  0
    3.4426   -3.9554   -0.2675 H   0  0  0  0  0  0  0  0  0  0  0  0
  2 11  1  0  0  0  0
  5 29  1  0  0  0  0
  5 22  1  0  0  0  0
  6  7  1  0  0  0  0
  7  3  1  0  0  0  0
  7  8  2  0  0  0  0
  8  1  1  0  0  0  0
  9  8  1  0  0  0  0
  9 10  1  0  0  0  0
 11  9  2  0  0  0  0
 12  6  2  0  0  0  0
 12 11  1  0  0  0  0
 13 12  1  0  0  0  0
 14  4  1  0  0  0  0
 14  6  1  0  0  0  0
 15 14  1  0  0  0  0
 16 17  1  0  0  0  0
 16 19  1  0  0  0  0
 16  4  1  0  0  0  0
 18 16  1  0  0  0  0
 19  5  1  0  0  0  0
 20 19  1  0  0  0  0
 21 19  1  0  0  0  0
 22 24  1  0  0  0  0
 23 22  1  0  0  0  0
 25 28  1  0  0  0  0
 25 27  1  0  0  0  0
 25 22  1  0  0  0  0
 26 25  1  0  0  0  0
 29 32  1  0  0  0  0
 30 29  1  0  0  0  0
 31 29  1  0  0  0  0
 32 34  1  0  0  0  0
 32 35  1  0  0  0  0
 32 33  1  0  0  0  0
M  CHG  1   3  -1
M  END
