1,7,8
q = -1.0, confidence = 0.006

 33 33  0  0  0  0  0  0  0  0999 V2000
    0.2801    1.3541    0.3178 O   0  5  0  0  0  0  0  0  0  0  0  0
    1.6614    1.9679    2.3798 O   0  0  0  0  0  0  0  0  0  0  0  0
    0.9156    1.7677    1.7410 H   0  0  0  0  0  0  0  0  0  0  0  0
    3.8842    2.1753    2.1386 O   0  0  0  0  0  0  0  0  0  0  0  0
   -4.5076   -2.2127    1.0256 O   0  0  0  0  0  0  0  0  0  0  0  0
   -5.4269   -2.5159    1.1358 H   0  0  0  0  0  0  0  0  0  0  0  0
   -0.9818    0.3797   -1.8679 N   0  0  0  0  0  2  0  0  0  0  0  0
   -2.4203   -1.3715   -0.4601 N   0  0  0  0  0  0  0  0  0  0  0  0
    2.7913    2.0020    1.6383 C   0  0  0  0  0  0  0  0  0  0  0  0
    2.6102    1.8004    0.1482 C   0  0  0  0  0  0  0  0  0  0  0  0
    3.7484    1.9179   -0.6654 C   0  0  0  0  0  0  0  0  0  0  0  0
    4.6926    2.1682   -0.1577 H   0  0  0  0  0  0  0  0  0  0  0  0
    3.6938    1.7055   -2.0537 C   0  0  0  0  0  0  0  0  0  0  0  0
    4.6033    1.7897   -2.6642 H   0  0  0  0  0  0  0  0  0  0  0  0
    2.4793    1.3626   -2.6451 C   0  0  0  0  0  0  0  0  0  0  0  0
    2.4248    1.1651   -3.7266 H   0  0  0  0  0  0  0  0  0  0  0  0
    1.3061    1.2129   -1.8624 C   0  0  0  0  0  0  0  0  0  0  0  0
    1.3638    1.4453   -0.4467 C   0  0  0  0  0  0  0  0  0  0  0  0
    0.0892    0.7842   -2.4981 C   0  0  0  0  0  3  0  0  0  0  0  0
    0.0740    0.7756   -3.6063 H   0  0  0  0  0  0  0  0  0  0  0  0
   -2.1631   -0.1282   -2.5492 C   0  0  0  0  0  0  0  0  0  0  0  0
   -2.0170   -0.1946   -3.6481 H   0  0  0  0  0  0  0  0  0  0  0  0
   -3.0240    0.5545   -2.3620 H   0  0  0  0  0  0  0  0  0  0  0  0
   -2.4304   -1.5038   -1.9436 C   0  0  0  0  0  0  0  0  0  0  0  0
   -3.3880   -1.9322   -2.3065 H   0  0  0  0  0  0  0  0  0  0  0  0
   -1.6130   -2.1981   -2.2212 H   0  0  0  0  0  0  0  0  0  0  0  0
   -2.3375   -2.6740    0.2545 C   0  0  0  0  0  0  0  0  0  0  0  0
   -1.8784   -2.4911    1.2432 H   0  0  0  0  0  0  0  0  0  0  0  0
   -1.6651   -3.3570   -0.2961 H   0  0  0  0  0  0  0  0  0  0  0  0
   -3.7310   -3.2603    0.4451 C   0  0  0  0  0  0  0  0  0  0  0  0
   -4.1640   -3.5967   -0.5265 H   0  0  0  0  0  0  0  0  0  0  0  0
   -3.6594   -4.1526    1.1068 H   0  0  0  0  0  0  0  0  0  0  0  0
   -3.3381   -0.9889   -0.1639 H   0  0  0  0  0  0  0  0  0  0  0  0
  3  2  1  0  0  0  0
  5  6  1  0  0  0  0
  8 33  1  0  0  0  0
  8 27  1  0  0  0  0
  9  4  2  0  0  0  0
  9  2  1  0  0  0  0
 10  9  1  0  0  0  0
 11 12  1  0  0  0  0
 11 10  2  0  0  0  0
 13 11  1  0  0  0  0
 14 13  1  0  0  0  0
 15 13  2  0  0  0  0
 15 17  1  0  0  0  0
 16 15  1  0  0  0  0
 17 18  2  0  0  0  0
 18 10  1  0  0  0  0
 18  1  1  0  0  0  0
 19  7  1  0  0  0  0
 19 17  1  0  0  0  0
 20 19  1  0  0  0  0
 21 23  1  0  0  0  0
 21 24  1  0  0  0  0
 21  7  1  0  0  0  0
 22 21  1  0  0  0  0
 24  8  1  0  0  0  0
 25 24  1  0  0  0  0
 26 24  1  0  0  0  0
 27 30  1  0  0  0  0
 27 28  1  0  0  0  0
 29 27  1  0  0  0  0
 30  5  1  0  0  0  0
 30 32  1  0  0  0  0
 31 30  1  0  0  0  0
M  CHG  1   1  -1
M  END
