4,6,27
q = -1.0, confidence = 0.122

 77 82  0  0  1  0  0  0  0  0999 V2000
   -1.4888   -0.2159   -0.7239 C   0  0  2  0  0  0  0  0  0  0  0  0
   -1.0343   -0.4251   -2.1983 C   0  0  0  0  0  0  0  0  0  0  0  0
   -1.8232   -0.7751   -3.0630 O   0  5  0  0  0  0  0  0  0  0  0  0
    0.2360   -0.1778   -2.3394 O   0  0  0  0  0  0  0  0  0  0  0  0
   -1.1760    1.1251   -0.2695 N   0  0  0  0  0  0  0  0  0  0  0  0
    0.1148    1.5409   -0.2174 N   0  0  0  0  0  2  0  0  0  0  0  0
    0.1090    2.7477    0.4034 C   0  0  1  0  0  3  0  0  0  0  0  0
   -1.2235    3.0910    0.7345 C   0  0  0  0  0  0  0  0  0  0  0  0
   -2.0314    2.0416    0.2869 C   0  0  0  0  0  0  0  0  0  0  0  0
    1.3517    3.4853    0.7182 C   0  0  0  0  0  0  0  0  0  0  0  0
    1.8478    4.4992   -0.1153 C   0  0  0  0  0  0  0  0  0  0  0  0
    3.0431    5.1630    0.1985 C   0  0  0  0  0  0  0  0  0  0  0  0
    3.7499    4.7979    1.3521 C   0  0  0  0  0  0  0  0  0  0  0  0
    3.2706    3.7894    2.2027 C   0  0  0  0  0  0  0  0  0  0  0  0
    2.0597    3.1392    1.8989 C   0  0  0  0  0  0  0  0  0  0  0  0
    1.4896    2.1717    2.6672 O   0  0  0  0  0  0  0  0  0  0  0  0
    2.2765    1.5607    3.6722 C   0  0  0  0  0  0  0  0  0  0  0  0
   -3.4868    1.8248    0.3334 C   0  0  0  0  0  0  0  0  0  0  0  0
   -4.1775    1.8361    1.5588 C   0  0  0  0  0  0  0  0  0  0  0  0
   -5.5625    1.6221    1.6112 C   0  0  0  0  0  0  0  0  0  0  0  0
   -6.2686    1.3971    0.4218 C   0  0  0  0  0  0  0  0  0  0  0  0
   -5.6079    1.3873   -0.8172 C   0  0  0  0  0  0  0  0  0  0  0  0
   -4.2169    1.6033   -0.8719 C   0  0  0  0  0  0  0  0  0  0  0  0
   -3.4839    1.6155   -2.0111 O   0  0  0  0  0  0  0  0  0  0  0  0
   -4.1162    1.3472   -3.2545 C   0  0  0  0  0  0  0  0  0  0  0  0
   -0.8448   -1.1925    0.1356 N   0  0  0  0  0  0  0  0  0  0  0  0
    0.5103   -1.3347    0.0834 N   0  0  0  0  0  2  0  0  0  0  0  0
    0.8468   -2.2015    1.0706 C   0  0  1  0  0  3  0  0  0  0  0  0
   -0.3192   -2.5781    1.7767 C   0  0  0  0  0  0  0  0  0  0  0  0
   -1.3933   -1.9274    1.1599 C   0  0  0  0  0  0  0  0  0  0  0  0
    2.2354   -2.6505    1.2885 C   0  0  0  0  0  0  0  0  0  0  0  0
    2.9722   -2.2311    2.4078 C   0  0  0  0  0  0  0  0  0  0  0  0
    4.3010   -2.6416    2.5899 C   0  0  0  0  0  0  0  0  0  0  0  0
    4.8937   -3.4805    1.6350 C   0  0  0  0  0  0  0  0  0  0  0  0
    4.1708   -3.9289    0.5197 C   0  0  0  0  0  0  0  0  0  0  0  0
    2.8293   -3.5343    0.3472 C   0  0  0  0  0  0  0  0  0  0  0  0
    2.0222   -3.9569   -0.6532 O   0  0  0  0  0  0  0  0  0  0  0  0
    2.5946   -4.6718   -1.7347 C   0  0  0  0  0  0  0  0  0  0  0  0
   -2.8219   -1.9430    1.5117 C   0  0  0  0  0  0  0  0  0  0  0  0
   -3.1935   -1.7743    2.8612 C   0  0  0  0  0  0  0  0  0  0  0  0
   -4.5371   -1.8053    3.2581 C   0  0  0  0  0  0  0  0  0  0  0  0
   -5.5337   -2.0086    2.2936 C   0  0  0  0  0  0  0  0  0  0  0  0
   -5.1957   -2.1929    0.9446 C   0  0  0  0  0  0  0  0  0  0  0  0
   -3.8462   -2.1711    0.5466 C   0  0  0  0  0  0  0  0  0  0  0  0
   -3.4231   -2.3592   -0.7295 O   0  0  0  0  0  0  0  0  0  0  0  0
   -4.3706   -2.4874   -1.7797 C   0  0  0  0  0  0  0  0  0  0  0  0
   -2.5734   -0.3527   -0.6437 H   0  0  0  0  0  0  0  0  0  0  0  0
   -1.5558    4.0113    1.2231 H   0  0  0  0  0  0  0  0  0  0  0  0
    1.3005    4.7385   -1.0378 H   0  0  0  0  0  0  0  0  0  0  0  0
    3.4306    5.9459   -0.4690 H   0  0  0  0  0  0  0  0  0  0  0  0
    4.6983    5.2993    1.5989 H   0  0  0  0  0  0  0  0  0  0  0  0
    3.8425    3.5142    3.0986 H   0  0  0  0  0  0  0  0  0  0  0  0
    1.6565    0.7501    4.0996 H   0  0  0  0  0  0  0  0  0  0  0  0
    2.5430    2.2720    4.4860 H   0  0  0  0  0  0  0  0  0  0  0  0
    3.2039    1.1221    3.2443 H   0  0  0  0  0  0  0  0  0  0  0  0
   -3.6014    1.9946    2.4825 H   0  0  0  0  0  0  0  0  0  0  0  0
   -6.0833    1.6188    2.5790 H   0  0  0  0  0  0  0  0  0  0  0  0
   -7.3553    1.2244    0.4499 H   0  0  0  0  0  0  0  0  0  0  0  0
   -6.1791    1.2246   -1.7407 H   0  0  0  0  0  0  0  0  0  0  0  0
   -3.3082    1.3148   -4.0055 H   0  0  0  0  0  0  0  0  0  0  0  0
   -4.8510    2.1414   -3.5108 H   0  0  0  0  0  0  0  0  0  0  0  0
   -4.6229    0.3591   -3.2466 H   0  0  0  0  0  0  0  0  0  0  0  0
   -0.3790   -3.2994    2.5968 H   0  0  0  0  0  0  0  0  0  0  0  0
    2.4952   -1.5467    3.1245 H   0  0  0  0  0  0  0  0  0  0  0  0
    4.8740   -2.2954    3.4621 H   0  0  0  0  0  0  0  0  0  0  0  0
    5.9416   -3.7958    1.7546 H   0  0  0  0  0  0  0  0  0  0  0  0
    4.6539   -4.5861   -0.2149 H   0  0  0  0  0  0  0  0  0  0  0  0
    1.7746   -4.8495   -2.4541 H   0  0  0  0  0  0  0  0  0  0  0  0
    3.0110   -5.6510   -1.4077 H   0  0  0  0  0  0  0  0  0  0  0  0
    3.3853   -4.0706   -2.2315 H   0  0  0  0  0  0  0  0  0  0  0  0
   -2.3987   -1.5966    3.6010 H   0  0  0  0  0  0  0  0  0  0  0  0
   -4.8030   -1.6619    4.3152 H   0  0  0  0  0  0  0  0  0  0  0  0
   -6.5939   -2.0265    2.5880 H   0  0  0  0  0  0  0  0  0  0  0  0
   -5.9861   -2.3621    0.2021 H   0  0  0  0  0  0  0  0  0  0  0  0
   -3.7800   -2.4574   -2.7125 H   0  0  0  0  0  0  0  0  0  0  0  0
   -4.9342   -3.4426   -1.7018 H   0  0  0  0  0  0  0  0  0  0  0  0
   -5.0892   -1.6383   -1.7776 H   0  0  0  0  0  0  0  0  0  0  0  0
  1 47  1  1  0  0  0
  1  5  1  0  0  0  0
  1 26  1  0  0  0  0
  2  1  1  0  0  0  0
  3  2  1  0  0  0  0
  4  2  2  0  0  0  0
  5  6  1  0  0  0  0
  5  9  1  0  0  0  0
  6  7  1  0  0  0  0
  7 10  1  1  0  0  0
  7  8  1  0  0  0  0
  8 48  1  0  0  0  0
  9 18  1  0  0  0  0
  9  8  2  0  0  0  0
 10 15  1  0  0  0  0
 11 12  1  0  0  0  0
 11 10  2  0  0  0  0
 12 13  2  0  0  0  0
 13 51  1  0  0  0  0
 13 14  1  0  0  0  0
 14 52  1  0  0  0  0
 15 14  2  0  0  0  0
 15 16  1  0  0  0  0
 16 17  1  0  0  0  0
 17 53  1  0  0  0  0
 17 54  1  0  0  0  0
 18 19  1  0  0  0  0
 19 20  2  0  0  0  0
 19 56  1  0  0  0  0
 20 57  1  0  0  0  0
 21 58  1  0  0  0  0
 21 20  1  0  0  0  0
 22 21  2  0  0  0  0
 23 22  1  0  0  0  0
 23 18  2  0  0  0  0
 24 23  1  0  0  0  0
 25 62  1  0  0  0  0
 25 24  1  0  0  0  0
 26 30  1  0  0  0  0
 27 26  1  0  0  0  0
 27 28  1  0  0  0  0
 28 31  1  6  0  0  0
 28 29  1  0  0  0  0
 29 63  1  0  0  0  0
 30 39  1  0  0  0  0
 30 29  2  0  0  0  0
 31 32  1  0  0  0  0
 32 33  2  0  0  0  0
 32 64  1  0  0  0  0
 33 65  1  0  0  0  0
 34 66  1  0  0  0  0
 34 33  1  0  0  0  0
 35 34  2  0  0  0  0
 36 35  1  0  0  0  0
 36 31  2  0  0  0  0
 37 36  1  0  0  0  0
 38 69  1  0  0  0  0
 38 37  1  0  0  0  0
 39 40  1  0  0  0  0
 40 41  2  0  0  0  0
 40 71  1  0  0  0  0
 41 72  1  0  0  0  0
 42 73  1  0  0  0  0
 42 41  1  0  0  0  0
 43 42  2  0  0  0  0
 44 43  1  0  0  0  0
 44 39  2  0  0  0  0
 45 44  1  0  0  0  0
 46 77  1  0  0  0  0
 46 76  1  0  0  0  0
 46 45  1  0  0  0  0
 49 11  1  0  0  0  0
 50 12  1  0  0  0  0
 55 17  1  0  0  0  0
 59 22  1  0  0  0  0
 60 25  1  0  0  0  0
 61 25  1  0  0  0  0
 67 35  1  0  0  0  0
 68 38  1  0  0  0  0
 70 38  1  0  0  0  0
 74 43  1  0  0  0  0
 75 46  1  0  0  0  0
M  CHG  1   3  -1
M  END
