1,15,30
q = -1.0, confidence = 0.04

 30 31  0  0  0  0  0  0  0  0999 V2000
   -0.9625   -1.6567    0.2949 N   0  0  0  0  0  2  0  0  0  0  0  0
   -1.5228   -2.0987    1.4256 C   0  0  0  0  0  3  0  0  0  0  0  0
   -1.5985   -1.5528    2.3715 H   0  0  0  0  0  0  0  0  0  0  0  0
   -2.0801   -3.3149    1.2079 N   0  0  0  0  0  0  0  0  0  0  0  0
   -2.5833   -3.8669    1.9046 H   0  0  0  0  0  0  0  0  0  0  0  0
   -1.8992   -3.6532   -0.1189 C   0  0  0  0  0  0  0  0  0  0  0  0
   -2.2863   -4.5817   -0.5484 H   0  0  0  0  0  0  0  0  0  0  0  0
   -1.1992   -2.6041   -0.6903 C   0  0  0  0  0  0  0  0  0  0  0  0
   -0.9167   -2.2834   -2.1186 C   0  0  0  0  0  0  0  0  0  0  0  0
   -1.3557   -3.0629   -2.7700 H   0  0  0  0  0  0  0  0  0  0  0  0
    0.1735   -2.2348   -2.3075 H   0  0  0  0  0  0  0  0  0  0  0  0
   -1.5763   -0.9380   -2.4401 C   0  0  0  0  0  0  0  0  0  0  0  0
   -1.5610   -0.7477   -3.5345 H   0  0  0  0  0  0  0  0  0  0  0  0
   -2.6375   -0.9593   -2.1209 H   0  0  0  0  0  0  0  0  0  0  0  0
   -0.9384    0.2261   -1.7603 N   0  0  0  0  0  0  0  0  0  0  0  0
   -0.1098    0.4683   -2.3205 H   0  0  0  0  0  0  0  0  0  0  0  0
   -1.8742    1.3894   -1.6980 C   0  0  0  0  0  0  0  0  0  0  0  0
   -2.2914    1.5848   -2.7095 H   0  0  0  0  0  0  0  0  0  0  0  0
   -1.2702    2.2704   -1.4007 H   0  0  0  0  0  0  0  0  0  0  0  0
   -2.9833    1.1481   -0.7141 C   0  0  0  0  0  0  0  0  0  0  0  0
   -4.3363    1.1961   -1.0913 C   0  0  0  0  0  0  0  0  0  0  0  0
   -4.5889    1.3879   -2.1472 H   0  0  0  0  0  0  0  0  0  0  0  0
   -5.3611    1.0239   -0.1490 C   0  0  0  0  0  0  0  0  0  0  0  0
   -6.4145    1.0714   -0.4593 H   0  0  0  0  0  0  0  0  0  0  0  0
   -5.0203    0.7969    1.1954 C   0  0  0  0  0  0  0  0  0  0  0  0
   -5.8127    0.6705    1.9492 H   0  0  0  0  0  0  0  0  0  0  0  0
   -3.6788    0.7235    1.5882 C   0  0  0  0  0  0  0  0  0  0  0  0
   -3.4053    0.5575    2.6417 H   0  0  0  0  0  0  0  0  0  0  0  0
   -2.6313    0.8970    0.6462 C   0  0  0  0  0  0  0  0  0  0  0  0
   -1.3655    0.8565    1.0565 O   0  5  0  0  0  0  0  0  0  0  0  0
  1  2  1  0  0  0  0
  2  3  1  0  0  0  0
  4  2  1  0  0  0  0
  4  5  1  0  0  0  0
  6  4  1  0  0  0  0
  7  6  1  0  0  0  0
  8  6  2  0  0  0  0
  8  1  1  0  0  0  0
  9  8  1  0  0  0  0
 10  9  1  0  0  0  0
 11  9  1  0  0  0  0
 12 14  1  0  0  0  0
 12  9  1  0  0  0  0
 12 15  1  0  0  0  0
 13 12  1  0  0  0  0
 15 17  1  0  0  0  0
 16 15  1  0  0  0  0
 17 19  1  0  0  0  0
 17 20  1  0  0  0  0
 18 17  1  0  0  0  0
 20 29  1  0  0  0  0
 21 20  2  0  0  0  0
 21 23  1  0  0  0  0
 22 21  1  0  0  0  0
 23 25  2  0  0  0  0
 24 23  1  0  0  0  0
 25 27  1  0  0  0  0
 25 26  1  0  0  0  0
 27 28  1  0  0  0  0
 29 30  1  0  0  0  0
 29 27  2  0  0  0  0
M  CHG  1  30  -1
M  END
