5,7,9
q = -1.0, confidence = 0.026

 40 41  0  0  0  0  0  0  0  0999 V2000
    3.3842   -0.5081    0.0119 C   0  0  0  0  0  0  0  0  0  0  0  0
    3.4339    0.9094   -0.2245 C   0  0  0  0  0  0  0  0  0  0  0  0
    2.2857    1.7608   -0.1546 C   0  0  0  0  0  3  0  0  0  0  0  0
    2.4846    2.8383   -0.2744 H   0  0  0  0  0  0  0  0  0  0  0  0
    2.2613   -1.1199    0.3224 O   0  5  0  0  0  0  0  0  0  0  0  0
   -2.5130   -0.2428   -0.1074 N   0  0  0  0  0  2  0  0  0  0  0  0
    1.0398    1.3551    0.0209 N   0  0  0  0  0  2  0  0  0  0  0  0
    0.0296    2.2642    0.1287 N   0  0  0  0  0  0  0  0  0  0  0  0
   -1.3309    0.3769    0.0080 N   0  0  0  0  0  2  0  0  0  0  0  0
    4.5822   -1.2685   -0.0406 C   0  0  0  0  0  0  0  0  0  0  0  0
    4.5086   -2.3483    0.1493 H   0  0  0  0  0  0  0  0  0  0  0  0
    0.3069    3.6738    0.3072 C   0  0  0  0  0  0  0  0  0  0  0  0
   -0.5951    4.1793    0.6896 H   0  0  0  0  0  0  0  0  0  0  0  0
    0.6271    4.1667   -0.6362 H   0  0  0  0  0  0  0  0  0  0  0  0
    1.1070    3.7922    1.0657 H   0  0  0  0  0  0  0  0  0  0  0  0
   -3.6429    0.4506   -0.1759 C   0  0  0  0  0  0  0  0  0  0  0  0
   -3.6361    1.8719   -0.1488 C   0  0  0  0  0  0  0  0  0  0  0  0
   -4.5689    2.4467   -0.2219 H   0  0  0  0  0  0  0  0  0  0  0  0
   -1.2417    1.7482    0.0368 C   0  0  0  0  0  0  0  0  0  0  0  0
   -2.4165    2.5231   -0.0524 C   0  0  0  0  0  0  0  0  0  0  0  0
   -2.3618    3.6187   -0.0659 H   0  0  0  0  0  0  0  0  0  0  0  0
   -4.9418   -0.3527   -0.2903 C   0  0  0  0  0  0  0  0  0  0  0  0
   -4.6488   -1.8610   -0.3120 C   0  0  0  0  0  0  0  0  0  0  0  0
   -4.1191   -2.1833    0.6043 H   0  0  0  0  0  0  0  0  0  0  0  0
   -4.0030   -2.1343   -1.1680 H   0  0  0  0  0  0  0  0  0  0  0  0
   -5.6018   -2.4219   -0.3905 H   0  0  0  0  0  0  0  0  0  0  0  0
   -5.6632    0.0493   -1.5964 C   0  0  0  0  0  0  0  0  0  0  0  0
   -5.0330   -0.1700   -2.4815 H   0  0  0  0  0  0  0  0  0  0  0  0
   -5.9235    1.1272   -1.6179 H   0  0  0  0  0  0  0  0  0  0  0  0
   -6.6075   -0.5233   -1.6978 H   0  0  0  0  0  0  0  0  0  0  0  0
    5.7949   -0.6549   -0.3329 C   0  0  0  0  0  0  0  0  0  0  0  0
    6.7112   -1.2628   -0.3808 H   0  0  0  0  0  0  0  0  0  0  0  0
   -5.8357   -0.0194    0.9255 C   0  0  0  0  0  0  0  0  0  0  0  0
   -6.0948    1.0581    0.9721 H   0  0  0  0  0  0  0  0  0  0  0  0
   -5.3326   -0.2931    1.8745 H   0  0  0  0  0  0  0  0  0  0  0  0
   -6.7853   -0.5889    0.8641 H   0  0  0  0  0  0  0  0  0  0  0  0
    5.8611    0.7407   -0.5695 C   0  0  0  0  0  0  0  0  0  0  0  0
    6.8246    1.2190   -0.7966 H   0  0  0  0  0  0  0  0  0  0  0  0
    4.7004    1.4996   -0.5086 C   0  0  0  0  0  0  0  0  0  0  0  0
    4.7417    2.5864   -0.6849 H   0  0  0  0  0  0  0  0  0  0  0  0
  1  5  1  0  0  0  0
  2  3  1  0  0  0  0
  2  1  2  0  0  0  0
  3  7  1  0  0  0  0
  4  3  1  0  0  0  0
  6  9  1  0  0  0  0
  7  8  1  0  0  0  0
  8 12  1  0  0  0  0
  9 19  1  0  0  0  0
 10  1  1  0  0  0  0
 10 11  1  0  0  0  0
 12 13  1  0  0  0  0
 12 15  1  0  0  0  0
 14 12  1  0  0  0  0
 16 17  2  0  0  0  0
 16  6  1  0  0  0  0
 17 20  1  0  0  0  0
 18 17  1  0  0  0  0
 19  8  1  0  0  0  0
 20 19  2  0  0  0  0
 21 20  1  0  0  0  0
 22 16  1  0  0  0  0
 22 33  1  0  0  0  0
 23 22  1  0  0  0  0
 23 24  1  0  0  0  0
 25 23  1  0  0  0  0
 26 23  1  0  0  0  0
 27 22  1  0  0  0  0
 28 27  1  0  0  0  0
 29 27  1  0  0  0  0
 30 27  1  0  0  0  0
 31 10  2  0  0  0  0
 32 31  1  0  0  0  0
 33 34  1  0  0  0  0
 33 35  1  0  0  0  0
 36 33  1  0  0  0  0
 37 39  2  0  0  0  0
 37 31  1  0  0  0  0
 38 37  1  0  0  0  0
 39  2  1  0  0  0  0
 40 39  1  0  0  0  0
M  CHG  1   5  -1
M  END
