1,6,13
q = -1.0, confidence = 0.008

 23 22  0  0  1  0  0  0  0  0999 V2000
   -0.0012    1.4796   -0.0127 O   0  0  0  0  0  1  0  0  0  0  0  0
    1.0830    2.1957   -0.0323 C   0  0  1  0  0  3  0  0  0  0  0  0
    2.3747    1.6720   -0.0968 C   0  0  0  0  0  0  0  0  0  0  0  0
    3.2153    2.3750   -0.1371 H   0  0  0  0  0  0  0  0  0  0  0  0
    2.6737    0.2869   -0.0904 C   0  0  0  0  0  0  0  0  0  0  0  0
    1.7234   -0.6498   -0.0094 N   0  0  0  0  0  2  0  0  0  0  0  0
    2.0836   -2.0717   -0.0301 C   0  0  0  0  0  0  0  0  0  0  0  0
    3.0244   -2.2774    0.5190 H   0  0  0  0  0  0  0  0  0  0  0  0
    2.2441   -2.4195   -1.0787 H   0  0  0  0  0  0  0  0  0  0  0  0
    0.9371   -2.8312    0.6077 C   0  0  0  0  0  0  0  0  0  0  0  0
    0.9042   -2.6308    1.6966 H   0  0  0  0  0  0  0  0  0  0  0  0
    1.0170   -3.9276    0.4539 H   0  0  0  0  0  0  0  0  0  0  0  0
   -0.3064   -2.2758    0.0146 N   0  0  0  0  0  0  0  0  0  0  0  0
   -1.1422   -2.5808    0.5358 H   0  0  0  0  0  0  0  0  0  0  0  0
   -0.4228   -2.6293   -0.9505 H   0  0  0  0  0  0  0  0  0  0  0  0
    4.1255   -0.1223   -0.1717 C   0  0  0  0  0  0  0  0  0  0  0  0
    4.7759    0.7635   -0.2725 H   0  0  0  0  0  0  0  0  0  0  0  0
    4.3106   -0.7876   -1.0399 H   0  0  0  0  0  0  0  0  0  0  0  0
    4.4428   -0.6745    0.7377 H   0  0  0  0  0  0  0  0  0  0  0  0
    0.8425    3.6818    0.0211 C   0  0  0  0  0  0  0  0  0  0  0  0
    0.1449    3.9794   -0.7875 H   0  0  0  0  0  0  0  0  0  0  0  0
    1.7805    4.2566   -0.0765 H   0  0  0  0  0  0  0  0  0  0  0  0
    0.3597    3.9505    0.9838 H   0  0  0  0  0  0  0  0  0  0  0  0
  2  1  1  6  0  0  0
  2 20  1  0  0  0  0
  3  5  2  0  0  0  0
  3  2  1  0  0  0  0
  4  3  1  0  0  0  0
  5  6  1  0  0  0  0
  7  6  1  0  0  0  0
  7  8  1  0  0  0  0
  7 10  1  0  0  0  0
  9  7  1  0  0  0  0
 10 11  1  0  0  0  0
 12 10  1  0  0  0  0
 13 14  1  0  0  0  0
 13 10  1  0  0  0  0
 15 13  1  0  0  0  0
 16  5  1  0  0  0  0
 16 19  1  0  0  0  0
 17 16  1  0  0  0  0
 18 16  1  0  0  0  0
 20 23  1  0  0  0  0
 21 20  1  0  0  0  0
 22 20  1  0  0  0  0
M  END
