1,2,4
q = -1.0, confidence = 0.04

 52 53  0  0  0  0  0  0  0  0999 V2000
   -0.0082    0.9869   -0.0104 O   0  5  0  0  0  0  0  0  0  0  0  0
    3.7973   -0.2794   -0.0724 N   0  0  0  0  0  2  0  0  0  0  0  0
    4.2428   -1.5075    0.2805 N   0  0  0  0  0  0  0  0  0  0  0  0
    1.1786   -1.6400   -0.1229 N   0  0  0  0  0  2  0  0  0  0  0  0
    4.8763    0.4361   -0.4474 C   0  0  0  0  0  3  0  0  0  0  0  0
    4.7261    1.4800   -0.7467 H   0  0  0  0  0  0  0  0  0  0  0  0
    6.0387   -0.3538   -0.3286 C   0  0  0  0  0  0  0  0  0  0  0  0
    7.0679   -0.0612   -0.5564 H   0  0  0  0  0  0  0  0  0  0  0  0
    5.5961   -1.5897    0.1385 C   0  0  0  0  0  0  0  0  0  0  0  0
    6.1302   -2.5144    0.3822 H   0  0  0  0  0  0  0  0  0  0  0  0
    3.3194   -2.5260    0.7507 C   0  0  0  0  0  0  0  0  0  0  0  0
    2.9403   -2.2488    1.7576 H   0  0  0  0  0  0  0  0  0  0  0  0
    3.8998   -3.4636    0.8403 H   0  0  0  0  0  0  0  0  0  0  0  0
    2.1471   -2.7228   -0.2098 C   0  0  0  0  0  0  0  0  0  0  0  0
    2.5457   -2.7980   -1.2467 H   0  0  0  0  0  0  0  0  0  0  0  0
    1.6574   -3.6922    0.0287 H   0  0  0  0  0  0  0  0  0  0  0  0
   -0.0989   -1.9557   -0.1174 C   0  0  0  0  0  0  0  0  0  0  0  0
   -0.3329   -3.0399   -0.1555 H   0  0  0  0  0  0  0  0  0  0  0  0
   -1.2373   -1.0982   -0.0701 C   0  0  0  0  0  0  0  0  0  0  0  0
   -2.5198   -1.7298   -0.0726 C   0  0  0  0  0  3  0  0  0  0  0  0
   -2.5417   -2.8288   -0.1099 H   0  0  0  0  0  0  0  0  0  0  0  0
   -3.6948   -0.9986   -0.0326 C   0  0  0  0  0  0  0  0  0  0  0  0
   -3.5664    0.4224    0.0122 C   0  0  0  0  0  0  0  0  0  0  0  0
   -4.4921    1.0124    0.0441 H   0  0  0  0  0  0  0  0  0  0  0  0
   -2.3594    1.1154    0.0195 C   0  0  0  0  0  0  0  0  0  0  0  0
   -1.1342    0.3402   -0.0217 C   0  0  0  0  0  0  0  0  0  0  0  0
   -5.0952   -1.6317   -0.0352 C   0  0  0  0  0  0  0  0  0  0  0  0
   -5.8787   -1.1356   -1.2719 C   0  0  0  0  0  0  0  0  0  0  0  0
   -5.9837   -0.0323   -1.2768 H   0  0  0  0  0  0  0  0  0  0  0  0
   -6.9000   -1.5700   -1.2871 H   0  0  0  0  0  0  0  0  0  0  0  0
   -5.3638   -1.4283   -2.2092 H   0  0  0  0  0  0  0  0  0  0  0  0
   -5.8467   -1.2166    1.2503 C   0  0  0  0  0  0  0  0  0  0  0  0
   -5.3084   -1.5683    2.1536 H   0  0  0  0  0  0  0  0  0  0  0  0
   -6.8676   -1.6520    1.2635 H   0  0  0  0  0  0  0  0  0  0  0  0
   -5.9509   -0.1160    1.3287 H   0  0  0  0  0  0  0  0  0  0  0  0
   -5.0310   -3.1673   -0.0853 C   0  0  0  0  0  0  0  0  0  0  0  0
   -4.5221   -3.5275   -1.0025 H   0  0  0  0  0  0  0  0  0  0  0  0
   -6.0562   -3.5893   -0.0852 H   0  0  0  0  0  0  0  0  0  0  0  0
   -4.4982   -3.5851    0.7930 H   0  0  0  0  0  0  0  0  0  0  0  0
   -2.3015    2.6537    0.0715 C   0  0  0  0  0  0  0  0  0  0  0  0
   -3.7121    3.2700    0.1085 C   0  0  0  0  0  0  0  0  0  0  0  0
   -3.6269    4.3743    0.1446 H   0  0  0  0  0  0  0  0  0  0  0  0
   -4.2849    2.9526    1.0042 H   0  0  0  0  0  0  0  0  0  0  0  0
   -4.3056    3.0128   -0.7930 H   0  0  0  0  0  0  0  0  0  0  0  0
   -1.5772    3.1977   -1.1842 C   0  0  0  0  0  0  0  0  0  0  0  0
   -0.5246    2.8626   -1.2173 H   0  0  0  0  0  0  0  0  0  0  0  0
   -1.5847    4.3075   -1.1678 H   0  0  0  0  0  0  0  0  0  0  0  0
   -2.0916    2.8669   -2.1099 H   0  0  0  0  0  0  0  0  0  0  0  0
   -1.5484    3.1114    1.3448 C   0  0  0  0  0  0  0  0  0  0  0  0
   -0.4946    2.7784    1.3307 H   0  0  0  0  0  0  0  0  0  0  0  0
   -2.0409    2.7159    2.2570 H   0  0  0  0  0  0  0  0  0  0  0  0
   -1.5581    4.2196    1.4056 H   0  0  0  0  0  0  0  0  0  0  0  0
  2  3  1  0  0  0  0
  3 11  1  0  0  0  0
  4 17  1  0  0  0  0
  5  7  1  0  0  0  0
  5  2  1  0  0  0  0
  6  5  1  0  0  0  0
  7  9  2  0  0  0  0
  8  7  1  0  0  0  0
  9  3  1  0  0  0  0
  9 10  1  0  0  0  0
 11 13  1  0  0  0  0
 11 12  1  0  0  0  0
 14  4  1  0  0  0  0
 14 16  1  0  0  0  0
 14 11  1  0  0  0  0
 15 14  1  0  0  0  0
 17 19  2  0  0  0  0
 18 17  1  0  0  0  0
 19 26  1  0  0  0  0
 20 19  1  0  0  0  0
 20 22  1  0  0  0  0
 21 20  1  0  0  0  0
 22 23  2  0  0  0  0
 23 25  1  0  0  0  0
 23 24  1  0  0  0  0
 25 40  1  0  0  0  0
 26  1  1  0  0  0  0
 26 25  2  0  0  0  0
 27 22  1  0  0  0  0
 27 32  1  0  0  0  0
 28 27  1  0  0  0  0
 29 28  1  0  0  0  0
 30 28  1  0  0  0  0
 31 28  1  0  0  0  0
 32 34  1  0  0  0  0
 32 35  1  0  0  0  0
 32 33  1  0  0  0  0
 36 38  1  0  0  0  0
 36 27  1  0  0  0  0
 36 39  1  0  0  0  0
 37 36  1  0  0  0  0
 40 41  1  0  0  0  0
 40 49  1  0  0  0  0
 41 42  1  0  0  0  0
 41 43  1  0  0  0  0
 44 41  1  0  0  0  0
 45 47  1  0  0  0  0
 45 40  1  0  0  0  0
 46 45  1  0  0  0  0
 48 45  1  0  0  0  0
 49 52  1  0  0  0  0
 49 51  1  0  0  0  0
 50 49  1  0  0  0  0
M  CHG  1   1  -1
M  END
