1,2,3
q = -1.0, confidence = 0.006

 33 34  0  0  0  0  0  0  0  0999 V2000
   -1.4033   -0.5128   -1.2587 N   0  0  0  0  0  2  0  0  0  0  0  0
   -0.3943   -1.7221    0.8668 N   0  0  0  0  0  0  0  0  0  0  0  0
   -1.3159    0.9903    1.0044 O   0  5  0  0  0  0  0  0  0  0  0  0
   -2.0884    0.2923   -2.0961 C   0  0  0  0  0  3  0  0  0  0  0  0
   -3.2015   -0.1467   -2.8166 C   0  0  0  0  0  0  0  0  0  0  0  0
   -3.6337   -1.4697   -2.6546 C   0  0  0  0  0  0  0  0  0  0  0  0
   -2.9249   -2.3070   -1.7852 C   0  0  0  0  0  0  0  0  0  0  0  0
   -1.8126   -1.8002   -1.1030 C   0  0  0  0  0  0  0  0  0  0  0  0
   -0.9511   -2.6095   -0.1825 C   0  0  0  0  0  0  0  0  0  0  0  0
   -1.2487   -1.5766    2.0876 C   0  0  0  0  0  0  0  0  0  0  0  0
   -2.5575   -0.9172    1.7626 C   0  0  0  0  0  0  0  0  0  0  0  0
   -3.8007   -1.5478    1.9545 C   0  0  0  0  0  0  0  0  0  0  0  0
   -4.9802   -0.8900    1.5865 C   0  0  0  0  0  0  0  0  0  0  0  0
   -4.9277    0.3877    0.9955 C   0  0  0  0  0  0  0  0  0  0  0  0
   -3.6920    1.0186    0.7783 C   0  0  0  0  0  0  0  0  0  0  0  0
   -2.4784    0.3842    1.1994 C   0  0  0  0  0  0  0  0  0  0  0  0
   -3.5193    2.2160    0.1473 O   0  0  0  0  0  0  0  0  0  0  0  0
   -4.6786    2.9082   -0.2845 C   0  0  0  0  0  0  0  0  0  0  0  0
    0.5310   -2.1037    1.1091 H   0  0  0  0  0  0  0  0  0  0  0  0
   -1.7584    1.3348   -2.1927 H   0  0  0  0  0  0  0  0  0  0  0  0
   -3.7237    0.5519   -3.4849 H   0  0  0  0  0  0  0  0  0  0  0  0
   -4.5165   -1.8429   -3.1939 H   0  0  0  0  0  0  0  0  0  0  0  0
   -3.2343   -3.3480   -1.6173 H   0  0  0  0  0  0  0  0  0  0  0  0
   -1.5056   -3.4659    0.2526 H   0  0  0  0  0  0  0  0  0  0  0  0
   -0.0861   -2.9931   -0.7616 H   0  0  0  0  0  0  0  0  0  0  0  0
   -0.6626   -0.9553    2.7971 H   0  0  0  0  0  0  0  0  0  0  0  0
   -1.4121   -2.5755    2.5448 H   0  0  0  0  0  0  0  0  0  0  0  0
   -3.8403   -2.5549    2.3985 H   0  0  0  0  0  0  0  0  0  0  0  0
   -5.9559   -1.3704    1.7476 H   0  0  0  0  0  0  0  0  0  0  0  0
   -5.8630    0.8753    0.6886 H   0  0  0  0  0  0  0  0  0  0  0  0
   -5.2560    2.3209   -1.0345 H   0  0  0  0  0  0  0  0  0  0  0  0
   -4.3300    3.8482   -0.7509 H   0  0  0  0  0  0  0  0  0  0  0  0
   -5.3516    3.1564    0.5653 H   0  0  0  0  0  0  0  0  0  0  0  0
  1  8  1  0  0  0  0
  2 19  1  0  0  0  0
  2 10  1  0  0  0  0
  3 16  1  0  0  0  0
  4  1  1  0  0  0  0
  5  6  2  0  0  0  0
  5  4  1  0  0  0  0
  6  7  1  0  0  0  0
  7 23  1  0  0  0  0
  7  8  2  0  0  0  0
  8  9  1  0  0  0  0
  9 24  1  0  0  0  0
  9  2  1  0  0  0  0
 10 27  1  0  0  0  0
 10 26  1  0  0  0  0
 11 12  1  0  0  0  0
 11 10  1  0  0  0  0
 12 28  1  0  0  0  0
 13 29  1  0  0  0  0
 13 12  2  0  0  0  0
 14 13  1  0  0  0  0
 15 14  2  0  0  0  0
 15 16  1  0  0  0  0
 16 11  2  0  0  0  0
 17 15  1  0  0  0  0
 18 17  1  0  0  0  0
 18 33  1  0  0  0  0
 20  4  1  0  0  0  0
 21  5  1  0  0  0  0
 22  6  1  0  0  0  0
 25  9  1  0  0  0  0
 30 14  1  0  0  0  0
 31 18  1  0  0  0  0
 32 18  1  0  0  0  0
M  CHG  1   3  -1
M  END
