1,2,5
q = -2.0, confidence = 0.89

 26 28  0  0  1  0  0  0  0  0999 V2000
   -1.5339   -1.5101   -0.0004 O   0  5  0  0  0  0  0  0  0  0  0  0
   -0.0187    0.6086   -0.0011 N   0  0  0  0  0  0  0  0  0  0  0  0
   -0.8572    2.6864    0.0005 N   0  0  0  0  0  0  0  0  0  0  0  0
    0.4929    2.7997    0.0003 N   0  0  0  0  0  0  0  0  0  0  0  0
    2.3424   -0.3458   -0.0001 N   0  0  0  0  0  2  0  0  0  0  0  0
   -2.5686   -0.6996   -0.0002 C   0  0  0  0  0  0  0  0  0  0  0  0
   -3.8810   -1.2581   -0.0001 C   0  0  0  0  0  0  0  0  0  0  0  0
   -3.9537   -2.3561   -0.0002 H   0  0  0  0  0  0  0  0  0  0  0  0
   -5.0210   -0.4510    0.0001 C   0  0  0  0  0  0  0  0  0  0  0  0
   -6.0174   -0.9236    0.0002 H   0  0  0  0  0  0  0  0  0  0  0  0
   -4.9086    0.9553    0.0002 C   0  0  0  0  0  0  0  0  0  0  0  0
   -5.8089    1.5890    0.0004 H   0  0  0  0  0  0  0  0  0  0  0  0
   -3.6354    1.5328    0.0001 C   0  0  0  0  0  0  0  0  0  0  0  0
   -3.4993    2.6253    0.0002 H   0  0  0  0  0  0  0  0  0  0  0  0
   -2.4672    0.7401   -0.0001 C   0  0  0  0  0  0  0  0  0  0  0  0
   -1.1513    1.3536   -0.0002 C   0  0  0  0  0  3  0  0  0  0  0  0
    0.9742    1.5428   -0.0006 C   0  0  0  0  0  0  0  0  0  0  0  0
    2.3185    1.0196   -0.0003 C   0  0  1  0  0  3  0  0  0  0  0  0
    3.5140    1.7723   -0.0002 C   0  0  0  0  0  0  0  0  0  0  0  0
    3.4440    2.8690   -0.0003 H   0  0  0  0  0  0  0  0  0  0  0  0
    4.7319    1.0915    0.0001 C   0  0  0  0  0  0  0  0  0  0  0  0
    5.6795    1.6532    0.0002 H   0  0  0  0  0  0  0  0  0  0  0  0
    4.7418   -0.3188    0.0003 C   0  0  0  0  0  0  0  0  0  0  0  0
    5.6833   -0.8863    0.0005 H   0  0  0  0  0  0  0  0  0  0  0  0
    3.5148   -0.9951    0.0001 C   0  0  0  0  0  0  0  0  0  0  0  0
    3.4412   -2.0938    0.0003 H   0  0  0  0  0  0  0  0  0  0  0  0
  1  6  1  0  0  0  0
  2 17  2  0  0  0  0
  2 16  1  0  0  0  0
  4  3  2  0  0  0  0
  5 25  1  0  0  0  0
  6 15  2  0  0  0  0
  6  7  1  0  0  0  0
  7  9  2  0  0  0  0
  8  7  1  0  0  0  0
  9 10  1  0  0  0  0
  9 11  1  0  0  0  0
 11 12  1  0  0  0  0
 13 14  1  0  0  0  0
 13 11  2  0  0  0  0
 15 13  1  0  0  0  0
 16 15  1  0  0  0  0
 16  3  1  0  0  0  0
 17  4  1  0  0  0  0
 18 17  1  1  0  0  0
 18 19  1  0  0  0  0
 18  5  1  0  0  0  0
 19 21  2  0  0  0  0
 20 19  1  0  0  0  0
 21 22  1  0  0  0  0
 21 23  1  0  0  0  0
 23 24  1  0  0  0  0
 25 23  2  0  0  0  0
 25 26  1  0  0  0  0
M  CHG  1   1  -1
M  END
