3,4,6
q = -2.0, confidence = 0.966

 26 26  0  0  1  0  0  0  0  0999 V2000
    7.0123   -0.2826    0.0020 Br  0  0  0  0  0  0  0  0  0  0  0  0
   -1.8662    4.8513   -0.0019 S   0  0  0  0  0  0  0  0  0  0  0  0
    0.9697   -0.5665   -0.1081 O   0  0  0  0  0  1  0  0  0  0  0  0
    0.9268    2.2131   -0.1125 N   0  0  0  0  0  2  0  0  0  0  0  0
    0.3462    3.4480   -0.1204 N   0  0  0  0  0  0  0  0  0  0  0  0
   -1.5452    2.1058   -0.0817 N   0  0  0  0  0  2  0  0  0  0  0  0
    2.2759   -0.4128   -0.0753 C   0  0  1  0  0  3  0  0  0  0  0  0
    3.0546   -1.6054   -0.0286 C   0  0  0  0  0  0  0  0  0  0  0  0
    2.5030   -2.5568   -0.0081 H   0  0  0  0  0  0  0  0  0  0  0  0
    4.4442   -1.5832   -0.0061 C   0  0  0  0  0  0  0  0  0  0  0  0
    5.0225   -2.5173    0.0288 H   0  0  0  0  0  0  0  0  0  0  0  0
    5.1032   -0.3356   -0.0275 C   0  0  0  0  0  0  0  0  0  0  0  0
    4.3800    0.8511   -0.0667 C   0  0  0  0  0  0  0  0  0  0  0  0
    4.9290    1.8002   -0.0788 H   0  0  0  0  0  0  0  0  0  0  0  0
    2.9535    0.8588   -0.0900 C   0  0  0  0  0  0  0  0  0  0  0  0
    2.2588    2.1347   -0.1165 C   0  0  0  0  0  0  0  0  0  0  0  0
    3.0564    3.4133   -0.1331 C   0  0  0  0  0  0  0  0  0  0  0  0
    3.7346    3.4423   -1.0099 H   0  0  0  0  0  0  0  0  0  0  0  0
    3.6884    3.4954    0.7749 H   0  0  0  0  0  0  0  0  0  0  0  0
    2.3667    4.2722   -0.1734 H   0  0  0  0  0  0  0  0  0  0  0  0
   -0.9709    3.3196   -0.0740 C   0  0  0  0  0  0  0  0  0  0  0  0
   -3.5829    4.2588   -0.0843 C   0  0  0  0  0  0  0  0  0  0  0  0
   -4.2146    5.1670   -0.0853 H   0  0  0  0  0  0  0  0  0  0  0  0
   -3.7743    3.6885   -1.0147 H   0  0  0  0  0  0  0  0  0  0  0  0
   -3.8558    3.6426    0.7967 H   0  0  0  0  0  0  0  0  0  0  0  0
   -2.5578    2.0362    0.0394 H   0  0  0  0  0  0  0  0  0  0  0  0
  5  4  1  0  0  0  0
  5 21  2  0  0  0  0
  6 21  1  0  0  0  0
  6 26  1  0  0  0  0
  7  3  1  6  0  0  0
  7  8  1  0  0  0  0
  8  9  1  0  0  0  0
  8 10  2  0  0  0  0
 10 11  1  0  0  0  0
 12 10  1  0  0  0  0
 12  1  1  0  0  0  0
 13 12  2  0  0  0  0
 14 13  1  0  0  0  0
 15  7  1  0  0  0  0
 15 13  1  0  0  0  0
 16  4  1  0  0  0  0
 16 15  2  0  0  0  0
 17 16  1  0  0  0  0
 17 19  1  0  0  0  0
 18 17  1  0  0  0  0
 20 17  1  0  0  0  0
 21  2  1  0  0  0  0
 22  2  1  0  0  0  0
 22 25  1  0  0  0  0
 23 22  1  0  0  0  0
 24 22  1  0  0  0  0
M  END
