2,4,7
q = -1.0, confidence = 0.004

 20 20  0  0  0  0  0  0  0  0999 V2000
    4.6919   -0.5751   -0.4291 Br  0  0  0  0  0  0  0  0  0  0  0  0
   -1.1388    0.9497   -1.5613 O   0  5  0  0  0  0  0  0  0  0  0  0
   -1.5475    3.0745   -2.2380 O   0  0  0  0  0  0  0  0  0  0  0  0
    0.7374    0.2936    0.4124 N   0  0  0  0  0  2  0  0  0  0  0  0
   -0.3894    2.0405    1.4942 N   0  0  0  0  0  0  0  0  0  0  0  0
   -0.3809    3.0440    1.7041 H   0  0  0  0  0  0  0  0  0  0  0  0
   -1.6245    1.5466    1.0091 N   0  0  0  0  0  0  0  0  0  0  0  0
   -2.2508    1.4338    1.8180 H   0  0  0  0  0  0  0  0  0  0  0  0
    1.8814   -0.2962   -0.0062 C   0  0  0  0  0  3  0  0  0  0  0  0
    1.7776   -1.2699   -0.5045 H   0  0  0  0  0  0  0  0  0  0  0  0
    3.1299    0.3010    0.1749 C   0  0  0  0  0  0  0  0  0  0  0  0
    3.2006    1.5614    0.8016 C   0  0  0  0  0  0  0  0  0  0  0  0
    4.1706    2.0574    0.9458 H   0  0  0  0  0  0  0  0  0  0  0  0
    2.0231    2.1700    1.2257 C   0  0  0  0  0  0  0  0  0  0  0  0
    2.0434    3.1551    1.7133 H   0  0  0  0  0  0  0  0  0  0  0  0
    0.7942    1.5032    1.0207 C   0  0  0  0  0  0  0  0  0  0  0  0
   -2.2326    2.4247   -0.0281 C   0  0  0  0  0  0  0  0  0  0  0  0
   -2.1500    3.4969    0.2498 H   0  0  0  0  0  0  0  0  0  0  0  0
   -3.3083    2.1593   -0.0878 H   0  0  0  0  0  0  0  0  0  0  0  0
   -1.5796    2.1718   -1.4156 C   0  0  0  0  0  0  0  0  0  0  0  0
  1 11  1  0  0  0  0
  2 20  1  0  0  0  0
  3 20  2  0  0  0  0
  4 16  1  0  0  0  0
  5  6  1  0  0  0  0
  7  5  1  0  0  0  0
  7  8  1  0  0  0  0
  9 11  1  0  0  0  0
  9  4  1  0  0  0  0
 10  9  1  0  0  0  0
 11 12  2  0  0  0  0
 12 13  1  0  0  0  0
 12 14  1  0  0  0  0
 14 15  1  0  0  0  0
 16 14  2  0  0  0  0
 16  5  1  0  0  0  0
 17 18  1  0  0  0  0
 17  7  1  0  0  0  0
 19 17  1  0  0  0  0
 20 17  1  0  0  0  0
M  CHG  1   2  -1
M  END
