1,2,4
q = -1.0, confidence = 0.112

 71 73  0  0  1  0  0  0  0  0999 V2000
   -0.2325    0.6812    0.2399 O   0  5  0  0  0  0  0  0  0  0  0  0
    0.7374   -1.3767   -1.2936 N   0  0  0  0  0  0  0  0  0  0  0  0
    2.0473    1.7477   -1.2082 N   0  0  0  0  0  0  0  0  0  0  0  0
    3.2248   -0.7855    0.1339 N   0  0  0  0  0  2  0  0  0  0  0  0
   -0.4249   -2.0397   -0.6076 C   0  0  0  0  0  0  0  0  0  0  0  0
   -1.6219   -1.1780   -0.3373 C   0  0  0  0  0  0  0  0  0  0  0  0
   -2.9071   -1.7153   -0.4933 C   0  0  0  0  0  0  0  0  0  0  0  0
   -4.0573   -1.0065   -0.1076 C   0  0  0  0  0  0  0  0  0  0  0  0
   -3.8522    0.2675    0.4611 C   0  0  0  0  0  0  0  0  0  0  0  0
   -2.5900    0.8603    0.6362 C   0  0  0  0  0  0  0  0  0  0  0  0
   -1.4323    0.1321    0.1933 C   0  0  0  0  0  0  0  0  0  0  0  0
   -5.4525   -1.6268   -0.3014 C   0  0  0  0  0  0  0  0  0  0  0  0
   -5.6832   -1.9123   -1.8029 C   0  0  0  0  0  0  0  0  0  0  0  0
   -6.5744   -0.6950    0.1890 C   0  0  0  0  0  0  0  0  0  0  0  0
   -5.5442   -2.9511    0.4906 C   0  0  0  0  0  0  0  0  0  0  0  0
   -2.4372    2.2504    1.2792 C   0  0  0  0  0  0  0  0  0  0  0  0
   -3.7829    2.8192    1.7639 C   0  0  0  0  0  0  0  0  0  0  0  0
   -1.4916    2.1602    2.5017 C   0  0  0  0  0  0  0  0  0  0  0  0
   -1.8510    3.2278    0.2367 C   0  0  0  0  0  0  0  0  0  0  0  0
    0.3043   -0.6479   -2.5161 C   0  0  0  0  0  0  0  0  0  0  0  0
    1.3427    0.3411   -3.0775 C   0  0  0  0  0  0  0  0  0  0  0  0
    1.3741    1.6818   -2.3796 C   0  0  0  0  0  0  0  0  0  0  0  0
    0.6996    2.7937   -2.9164 C   0  0  0  0  0  0  0  0  0  0  0  0
    0.7241    4.0128   -2.2248 C   0  0  0  0  0  0  0  0  0  0  0  0
    1.4034    4.0724   -0.9995 C   0  0  0  0  0  0  0  0  0  0  0  0
    2.0381    2.9143   -0.5349 C   0  0  0  0  0  0  0  0  0  0  0  0
    1.7133   -2.4342   -1.6547 C   0  0  0  0  0  0  0  0  0  0  0  0
    2.4757   -3.0082   -0.4560 C   0  0  0  0  0  0  0  0  0  0  0  0
    3.5770   -2.0858   -0.0355 C   0  0  1  0  0  3  0  0  0  0  0  0
    4.9048   -2.5080    0.1338 C   0  0  0  0  0  0  0  0  0  0  0  0
    5.8920   -1.5782    0.4822 C   0  0  0  0  0  0  0  0  0  0  0  0
    5.5163   -0.2357    0.6416 C   0  0  0  0  0  0  0  0  0  0  0  0
    4.1790    0.1198    0.4646 C   0  0  0  0  0  0  0  0  0  0  0  0
   -2.5394    3.3407   -0.6265 H   0  0  0  0  0  0  0  0  0  0  0  0
   -1.6960    4.2319    0.6863 H   0  0  0  0  0  0  0  0  0  0  0  0
   -0.8805    2.8578   -0.1361 H   0  0  0  0  0  0  0  0  0  0  0  0
   -2.9988   -2.7283   -0.9200 H   0  0  0  0  0  0  0  0  0  0  0  0
   -4.7291    0.8354    0.7917 H   0  0  0  0  0  0  0  0  0  0  0  0
    0.1658    2.7015   -3.8746 H   0  0  0  0  0  0  0  0  0  0  0  0
    0.2075    4.8966   -2.6281 H   0  0  0  0  0  0  0  0  0  0  0  0
    1.4352    4.9974   -0.4058 H   0  0  0  0  0  0  0  0  0  0  0  0
    2.5514    2.9145    0.4425 H   0  0  0  0  0  0  0  0  0  0  0  0
    5.1489   -3.5706   -0.0094 H   0  0  0  0  0  0  0  0  0  0  0  0
    6.9364   -1.8942    0.6219 H   0  0  0  0  0  0  0  0  0  0  0  0
    6.2498    0.5390    0.9058 H   0  0  0  0  0  0  0  0  0  0  0  0
    3.8327    1.1511    0.5921 H   0  0  0  0  0  0  0  0  0  0  0  0
   -0.7374   -2.9137   -1.2243 H   0  0  0  0  0  0  0  0  0  0  0  0
   -0.0290   -2.4227    0.3578 H   0  0  0  0  0  0  0  0  0  0  0  0
   -4.9201   -2.6068   -2.2081 H   0  0  0  0  0  0  0  0  0  0  0  0
   -6.6804   -2.3723   -1.9691 H   0  0  0  0  0  0  0  0  0  0  0  0
   -5.6317   -0.9752   -2.3937 H   0  0  0  0  0  0  0  0  0  0  0  0
   -7.5613   -1.1752    0.0292 H   0  0  0  0  0  0  0  0  0  0  0  0
   -6.4811   -0.4735    1.2712 H   0  0  0  0  0  0  0  0  0  0  0  0
   -6.5776    0.2688   -0.3590 H   0  0  0  0  0  0  0  0  0  0  0  0
   -6.5417   -3.4213    0.3590 H   0  0  0  0  0  0  0  0  0  0  0  0
   -4.7809   -3.6817    0.1557 H   0  0  0  0  0  0  0  0  0  0  0  0
   -5.3848   -2.7732    1.5733 H   0  0  0  0  0  0  0  0  0  0  0  0
   -4.5016    2.9644    0.9315 H   0  0  0  0  0  0  0  0  0  0  0  0
   -4.2608    2.1670    2.5232 H   0  0  0  0  0  0  0  0  0  0  0  0
   -3.6148    3.8102    2.2325 H   0  0  0  0  0  0  0  0  0  0  0  0
   -1.3809    3.1608    2.9710 H   0  0  0  0  0  0  0  0  0  0  0  0
   -1.9101    1.4709    3.2642 H   0  0  0  0  0  0  0  0  0  0  0  0
   -0.4904    1.7955    2.2065 H   0  0  0  0  0  0  0  0  0  0  0  0
    0.0449   -1.4034   -3.2947 H   0  0  0  0  0  0  0  0  0  0  0  0
   -0.6307   -0.1129   -2.2625 H   0  0  0  0  0  0  0  0  0  0  0  0
    2.3588   -0.1047   -3.0458 H   0  0  0  0  0  0  0  0  0  0  0  0
    1.0980    0.4972   -4.1471 H   0  0  0  0  0  0  0  0  0  0  0  0
    1.1640   -3.2455   -2.1842 H   0  0  0  0  0  0  0  0  0  0  0  0
    2.4392   -2.0081   -2.3748 H   0  0  0  0  0  0  0  0  0  0  0  0
    1.7955   -3.1623    0.4094 H   0  0  0  0  0  0  0  0  0  0  0  0
    2.8964   -3.9953   -0.7285 H   0  0  0  0  0  0  0  0  0  0  0  0
  2  5  1  0  0  0  0
  3 26  1  0  0  0  0
  4 33  1  0  0  0  0
  5  6  1  0  0  0  0
  5 48  1  0  0  0  0
  6 11  1  0  0  0  0
  7  6  2  0  0  0  0
  7  8  1  0  0  0  0
  8  9  2  0  0  0  0
  9 10  1  0  0  0  0
  9 38  1  0  0  0  0
 10 16  1  0  0  0  0
 11  1  1  0  0  0  0
 11 10  2  0  0  0  0
 12  8  1  0  0  0  0
 12 14  1  0  0  0  0
 12 15  1  0  0  0  0
 13 12  1  0  0  0  0
 14 53  1  0  0  0  0
 15 57  1  0  0  0  0
 16 17  1  0  0  0  0
 16 18  1  0  0  0  0
 17 60  1  0  0  0  0
 17 59  1  0  0  0  0
 18 61  1  0  0  0  0
 18 62  1  0  0  0  0
 19 35  1  0  0  0  0
 19 16  1  0  0  0  0
 20 65  1  0  0  0  0
 20  2  1  0  0  0  0
 21 66  1  0  0  0  0
 21 20  1  0  0  0  0
 21 22  1  0  0  0  0
 22  3  2  0  0  0  0
 23 22  1  0  0  0  0
 23 24  2  0  0  0  0
 24 25  1  0  0  0  0
 25 26  2  0  0  0  0
 25 41  1  0  0  0  0
 26 42  1  0  0  0  0
 27  2  1  0  0  0  0
 27 28  1  0  0  0  0
 28 70  1  0  0  0  0
 29 28  1  6  0  0  0
 29 30  1  0  0  0  0
 29  4  1  0  0  0  0
 30 31  2  0  0  0  0
 31 44  1  0  0  0  0
 31 32  1  0  0  0  0
 32 45  1  0  0  0  0
 33 46  1  0  0  0  0
 33 32  2  0  0  0  0
 34 19  1  0  0  0  0
 36 19  1  0  0  0  0
 37  7  1  0  0  0  0
 39 23  1  0  0  0  0
 40 24  1  0  0  0  0
 43 30  1  0  0  0  0
 47  5  1  0  0  0  0
 49 13  1  0  0  0  0
 50 13  1  0  0  0  0
 51 13  1  0  0  0  0
 52 14  1  0  0  0  0
 54 14  1  0  0  0  0
 55 15  1  0  0  0  0
 56 15  1  0  0  0  0
 58 17  1  0  0  0  0
 63 18  1  0  0  0  0
 64 20  1  0  0  0  0
 67 21  1  0  0  0  0
 68 27  1  0  0  0  0
 69 27  1  0  0  0  0
 71 28  1  0  0  0  0
M  CHG  1   1  -1
M  END
