2,3,5
q = -2.0, confidence = 0.88

 28 30  0  0  0  0  0  0  0  0999 V2000
   -2.8810    2.4726    0.3080 S   0  0  0  0  0  0  0  0  0  0  0  0
    2.1437   -1.0702    0.0320 O   0  5  0  0  0  0  0  0  0  0  0  0
    0.8232    1.3525    0.0705 N   0  0  0  0  0  2  0  0  0  0  0  0
   -0.1955    2.2337    0.2588 N   0  0  0  0  0  0  0  0  0  0  0  0
   -1.5062    0.2810   -0.1329 N   0  0  0  0  0  2  0  0  0  0  0  0
    3.2702   -0.3579   -0.0873 C   0  0  0  0  0  0  0  0  0  0  0  0
    4.4956   -1.0452   -0.2033 C   0  0  0  0  0  0  0  0  0  0  0  0
    5.6997   -0.3373   -0.2902 C   0  0  0  0  0  0  0  0  0  0  0  0
    5.7061    1.0711   -0.2580 C   0  0  0  0  0  0  0  0  0  0  0  0
    4.4987    1.7596   -0.1400 C   0  0  0  0  0  0  0  0  0  0  0  0
    3.2583    1.0730   -0.0592 C   0  0  0  0  0  0  0  0  0  0  0  0
    2.0466    1.8411    0.0801 C   0  0  0  0  0  3  0  0  0  0  0  0
   -1.3539    1.6150    0.1289 C   0  0  0  0  0  0  0  0  0  0  0  0
   -2.8469   -0.1101   -0.1960 C   0  0  0  0  0  0  0  0  0  0  0  0
   -3.3517   -1.3983   -0.4472 C   0  0  0  0  0  0  0  0  0  0  0  0
   -4.7408   -1.5882   -0.4685 C   0  0  0  0  0  0  0  0  0  0  0  0
   -5.6295   -0.5189   -0.2500 C   0  0  0  0  0  0  0  0  0  0  0  0
   -5.1398    0.7731   -0.0016 C   0  0  0  0  0  0  0  0  0  0  0  0
   -3.7533    0.9644    0.0234 C   0  0  0  0  0  0  0  0  0  0  0  0
    4.4696   -2.1439   -0.2226 H   0  0  0  0  0  0  0  0  0  0  0  0
    6.6464   -0.8908   -0.3831 H   0  0  0  0  0  0  0  0  0  0  0  0
    6.6537    1.6245   -0.3262 H   0  0  0  0  0  0  0  0  0  0  0  0
    4.4886    2.8605   -0.1147 H   0  0  0  0  0  0  0  0  0  0  0  0
    2.1317    2.9382    0.1946 H   0  0  0  0  0  0  0  0  0  0  0  0
   -2.6541   -2.2305   -0.6129 H   0  0  0  0  0  0  0  0  0  0  0  0
   -6.7156   -0.6908   -0.2754 H   0  0  0  0  0  0  0  0  0  0  0  0
   -5.8261    1.6154    0.1683 H   0  0  0  0  0  0  0  0  0  0  0  0
   -5.1387   -2.5951   -0.6637 H   0  0  0  0  0  0  0  0  0  0  0  0
  3 12  1  0  0  0  0
  3  4  1  0  0  0  0
  5 13  1  0  0  0  0
  6 11  1  0  0  0  0
  6  2  1  0  0  0  0
  7  6  2  0  0  0  0
  8  9  2  0  0  0  0
  8  7  1  0  0  0  0
  9 10  1  0  0  0  0
 10 23  1  0  0  0  0
 10 11  2  0  0  0  0
 11 12  1  0  0  0  0
 12 24  1  0  0  0  0
 13  4  2  0  0  0  0
 13  1  1  0  0  0  0
 14  5  1  0  0  0  0
 14 19  1  0  0  0  0
 15 14  2  0  0  0  0
 16 15  1  0  0  0  0
 16 17  2  0  0  0  0
 17 18  1  0  0  0  0
 18 19  2  0  0  0  0
 18 27  1  0  0  0  0
 19  1  1  0  0  0  0
 20  7  1  0  0  0  0
 21  8  1  0  0  0  0
 22  9  1  0  0  0  0
 25 15  1  0  0  0  0
 26 17  1  0  0  0  0
 28 16  1  0  0  0  0
M  CHG  1   2  -1
M  END
