1,4,5
q = -1.0, confidence = 0.004

 26 27  0  0  0  0  0  0  0  0999 V2000
   -0.5995    1.4027    1.2616 O   0  5  0  0  0  0  0  0  0  0  0  0
   -1.8571    1.6786    1.2302 N   0  0  0  0  0  0  0  0  0  0  0  0
   -2.5775    1.0140    0.3135 C   0  0  0  0  0  0  0  0  0  0  0  0
   -1.8059    0.1272   -0.4282 N   0  0  0  0  0  2  0  0  0  0  0  0
   -0.0451   -1.2610   -1.3973 N   0  0  0  0  0  2  0  0  0  0  0  0
   -1.3187   -1.4154   -1.9070 C   0  0  0  0  0  0  0  0  0  0  0  0
   -2.3110   -0.6472   -1.3623 N   0  0  0  0  0  0  0  0  0  0  0  0
   -1.5684   -2.3414   -2.9441 C   0  0  0  0  0  0  0  0  0  0  0  0
   -0.5102   -3.0987   -3.4499 C   0  0  0  0  0  0  0  0  0  0  0  0
    0.7817   -2.9289   -2.9173 C   0  0  0  0  0  0  0  0  0  0  0  0
    0.9692   -1.9976   -1.8894 C   0  0  0  0  0  0  0  0  0  0  0  0
    1.9579   -1.8276   -1.4368 H   0  0  0  0  0  0  0  0  0  0  0  0
    1.6391   -3.5049   -3.2912 H   0  0  0  0  0  0  0  0  0  0  0  0
   -0.6875   -3.8214   -4.2601 H   0  0  0  0  0  0  0  0  0  0  0  0
   -2.5947   -2.4333   -3.3235 H   0  0  0  0  0  0  0  0  0  0  0  0
   -4.0268    1.2669    0.2146 C   0  0  0  0  0  0  0  0  0  0  0  0
   -4.8683    0.6437   -0.7375 C   0  0  0  0  0  0  0  0  0  0  0  0
   -6.2394    0.9381   -0.7703 C   0  0  0  0  0  0  0  0  0  0  0  0
   -6.8003    1.8501    0.1347 C   0  0  0  0  0  0  0  0  0  0  0  0
   -5.9717    2.4747    1.0834 C   0  0  0  0  0  0  0  0  0  0  0  0
   -4.6045    2.1898    1.1257 C   0  0  0  0  0  0  0  0  0  0  0  0
   -3.9534    2.6773    1.8642 H   0  0  0  0  0  0  0  0  0  0  0  0
   -6.3968    3.1945    1.7996 H   0  0  0  0  0  0  0  0  0  0  0  0
   -7.8770    2.0762    0.1026 H   0  0  0  0  0  0  0  0  0  0  0  0
   -6.8765    0.4440   -1.5200 H   0  0  0  0  0  0  0  0  0  0  0  0
   -4.4321   -0.0694   -1.4461 H   0  0  0  0  0  0  0  0  0  0  0  0
  2  1  1  0  0  0  0
  3  2  2  0  0  0  0
  4  3  1  0  0  0  0
  6  5  1  0  0  0  0
  6  7  2  0  0  0  0
  7  4  1  0  0  0  0
  8  6  1  0  0  0  0
  9  8  2  0  0  0  0
  9 10  1  0  0  0  0
 10 11  2  0  0  0  0
 11 12  1  0  0  0  0
 11  5  1  0  0  0  0
 13 10  1  0  0  0  0
 14  9  1  0  0  0  0
 15  8  1  0  0  0  0
 16  3  1  0  0  0  0
 16 21  1  0  0  0  0
 17 16  2  0  0  0  0
 18 17  1  0  0  0  0
 18 19  2  0  0  0  0
 19 20  1  0  0  0  0
 20 21  2  0  0  0  0
 20 23  1  0  0  0  0
 21 22  1  0  0  0  0
 24 19  1  0  0  0  0
 25 18  1  0  0  0  0
 26 17  1  0  0  0  0
M  CHG  1   1  -1
M  END
