2,3,4
q = -1.0, confidence = 0.008

 28 29  0  0  0  0  0  0  0  0999 V2000
    2.5797   -0.1460   -1.3980 N   0  0  0  0  0  0  0  0  0  0  0  0
    1.4500    0.5299   -1.5164 N   0  0  0  0  0  2  0  0  0  0  0  0
   -0.9039    1.7656   -1.3830 N   0  0  0  0  0  2  0  0  0  0  0  0
    1.5519   -1.1131    0.4649 O   0  5  0  0  0  0  0  0  0  0  0  0
    4.9533   -0.8517   -2.0175 O   0  0  0  0  0  0  0  0  0  0  0  0
    4.0389   -0.3869   -2.0374 H   0  0  0  0  0  0  0  0  0  0  0  0
    4.9172   -1.6702   -0.9641 C   0  0  0  0  0  0  0  0  0  0  0  0
    6.0617   -2.4590   -0.6859 C   0  0  0  0  0  0  0  0  0  0  0  0
    6.9254   -2.3565   -1.3587 H   0  0  0  0  0  0  0  0  0  0  0  0
    6.0811   -3.3312    0.4015 C   0  0  0  0  0  0  0  0  0  0  0  0
    6.9836   -3.9328    0.5929 H   0  0  0  0  0  0  0  0  0  0  0  0
    4.9617   -3.4520    1.2547 C   0  0  0  0  0  0  0  0  0  0  0  0
    4.9847   -4.1441    2.1088 H   0  0  0  0  0  0  0  0  0  0  0  0
    3.8283   -2.6846    0.9971 C   0  0  0  0  0  0  0  0  0  0  0  0
    2.9336   -2.7482    1.6336 H   0  0  0  0  0  0  0  0  0  0  0  0
    3.7768   -1.7889   -0.0986 C   0  0  0  0  0  0  0  0  0  0  0  0
    2.5477   -1.0060   -0.3063 C   0  0  0  0  0  0  0  0  0  0  0  0
    1.2145    1.4061   -2.4561 C   0  0  0  0  0  0  0  0  0  0  0  0
    1.9500    1.6334   -3.2495 H   0  0  0  0  0  0  0  0  0  0  0  0
   -0.0797    2.0787   -2.4204 C   0  0  0  0  0  0  0  0  0  0  0  0
   -0.4790    3.0076   -3.4076 C   0  0  0  0  0  0  0  0  0  0  0  0
    0.2042    3.2496   -4.2353 H   0  0  0  0  0  0  0  0  0  0  0  0
   -1.7444    3.5956   -3.3161 C   0  0  0  0  0  0  0  0  0  0  0  0
   -2.0752    4.3179   -4.0779 H   0  0  0  0  0  0  0  0  0  0  0  0
   -2.5888    3.2500   -2.2480 C   0  0  0  0  0  0  0  0  0  0  0  0
   -3.5937    3.6827   -2.1447 H   0  0  0  0  0  0  0  0  0  0  0  0
   -2.1161    2.3255   -1.3037 C   0  0  0  0  0  0  0  0  0  0  0  0
   -2.7378    2.0158   -0.4460 H   0  0  0  0  0  0  0  0  0  0  0  0
  1 17  2  0  0  0  0
  2  1  1  0  0  0  0
  3 27  1  0  0  0  0
  5  7  1  0  0  0  0
  6  5  1  0  0  0  0
  7  8  2  0  0  0  0
  7 16  1  0  0  0  0
  8 10  1  0  0  0  0
  9  8  1  0  0  0  0
 10 11  1  0  0  0  0
 10 12  2  0  0  0  0
 12 13  1  0  0  0  0
 14 12  1  0  0  0  0
 14 15  1  0  0  0  0
 16 14  2  0  0  0  0
 17 16  1  0  0  0  0
 17  4  1  0  0  0  0
 18 20  2  0  0  0  0
 18  2  1  0  0  0  0
 19 18  1  0  0  0  0
 20  3  1  0  0  0  0
 21 23  2  0  0  0  0
 21 20  1  0  0  0  0
 22 21  1  0  0  0  0
 23 25  1  0  0  0  0
 24 23  1  0  0  0  0
 25 26  1  0  0  0  0
 25 27  2  0  0  0  0
 27 28  1  0  0  0  0
M  CHG  1   4  -1
M  END
