2,3,4
q = -1.0, confidence = 0.016

 36 37  0  0  1  0  0  0  0  0999 V2000
   -1.9049    1.4840    0.9495 H   0  0  0  0  0  0  0  0  0  0  0  0
    0.5837   -0.0814    1.3494 N   0  0  0  0  0  2  0  0  0  0  0  0
   -2.0218    0.4595    0.9862 N   0  0  0  0  0  0  0  0  0  0  0  0
    0.8264   -0.9429   -1.2825 O   0  5  0  0  0  0  0  0  0  0  0  0
    2.0312   -1.3124   -0.9020 C   0  0  0  0  0  0  0  0  0  0  0  0
    2.8036   -2.0325   -1.8568 C   0  0  0  0  0  0  0  0  0  0  0  0
    2.3203   -2.2748   -2.8140 H   0  0  0  0  0  0  0  0  0  0  0  0
    4.1148   -2.4077   -1.5917 C   0  0  0  0  0  0  0  0  0  0  0  0
    4.6859   -2.9617   -2.3521 H   0  0  0  0  0  0  0  0  0  0  0  0
    4.7077   -2.0930   -0.3489 C   0  0  0  0  0  0  0  0  0  0  0  0
    5.7375   -2.4049   -0.1263 H   0  0  0  0  0  0  0  0  0  0  0  0
    3.9688   -1.3992    0.6006 C   0  0  0  0  0  0  0  0  0  0  0  0
    4.4388   -1.1899    1.5698 H   0  0  0  0  0  0  0  0  0  0  0  0
    2.6228   -0.9862    0.3704 C   0  0  0  0  0  0  0  0  0  0  0  0
    1.8835   -0.3126    1.4284 C   0  0  2  0  0  3  0  0  0  0  0  0
    2.6253    0.1096    2.6761 C   0  0  0  0  0  0  0  0  0  0  0  0
    2.1561    0.9862    3.1553 H   0  0  0  0  0  0  0  0  0  0  0  0
    3.6649    0.3887    2.4366 H   0  0  0  0  0  0  0  0  0  0  0  0
    2.6611   -0.7155    3.4191 H   0  0  0  0  0  0  0  0  0  0  0  0
   -0.1583    0.4177    2.5136 C   0  0  0  0  0  0  0  0  0  0  0  0
   -0.0475    1.5261    2.5874 H   0  0  0  0  0  0  0  0  0  0  0  0
    0.2232   -0.0062    3.4631 H   0  0  0  0  0  0  0  0  0  0  0  0
   -1.6231    0.0445    2.3561 C   0  0  0  0  0  0  0  0  0  0  0  0
   -1.7517   -1.0509    2.4214 H   0  0  0  0  0  0  0  0  0  0  0  0
   -2.2582    0.5365    3.1223 H   0  0  0  0  0  0  0  0  0  0  0  0
   -3.3878    0.1973    0.5875 C   0  0  0  0  0  0  0  0  0  0  0  0
   -4.1593    1.2655    0.0919 C   0  0  0  0  0  0  0  0  0  0  0  0
   -3.7395    2.2858    0.0699 H   0  0  0  0  0  0  0  0  0  0  0  0
   -5.4722    1.0414   -0.3490 C   0  0  0  0  0  0  0  0  0  0  0  0
   -6.0710    1.8830   -0.7270 H   0  0  0  0  0  0  0  0  0  0  0  0
   -6.0201   -0.2490   -0.2894 C   0  0  0  0  0  0  0  0  0  0  0  0
   -7.0510   -0.4266   -0.6284 H   0  0  0  0  0  0  0  0  0  0  0  0
   -5.2492   -1.3102    0.2134 C   0  0  0  0  0  0  0  0  0  0  0  0
   -5.6752   -2.3231    0.2659 H   0  0  0  0  0  0  0  0  0  0  0  0
   -3.9337   -1.0985    0.6536 C   0  0  0  0  0  0  0  0  0  0  0  0
   -3.3158   -1.9331    1.0109 H   0  0  0  0  0  0  0  0  0  0  0  0
  1  3  1  0  0  0  0
  2 20  1  0  0  0  0
  3 23  1  0  0  0  0
  4  5  1  0  0  0  0
  5 14  1  0  0  0  0
  6  8  1  0  0  0  0
  6  5  2  0  0  0  0
  7  6  1  0  0  0  0
  8 10  2  0  0  0  0
  9  8  1  0  0  0  0
 10 11  1  0  0  0  0
 10 12  1  0  0  0  0
 12 13  1  0  0  0  0
 14 12  2  0  0  0  0
 14 15  1  0  0  0  0
 15  2  1  1  0  0  0
 15 16  1  0  0  0  0
 16 17  1  0  0  0  0
 16 19  1  0  0  0  0
 18 16  1  0  0  0  0
 20 21  1  0  0  0  0
 20 22  1  0  0  0  0
 23 24  1  0  0  0  0
 23 20  1  0  0  0  0
 23 25  1  0  0  0  0
 26 35  1  0  0  0  0
 26  3  1  0  0  0  0
 27 26  2  0  0  0  0
 28 27  1  0  0  0  0
 29 31  2  0  0  0  0
 29 27  1  0  0  0  0
 30 29  1  0  0  0  0
 31 33  1  0  0  0  0
 32 31  1  0  0  0  0
 33 34  1  0  0  0  0
 33 35  2  0  0  0  0
 35 36  1  0  0  0  0
M  CHG  1   4  -1
M  END
