1,14,25
q = -2.0, confidence = 0.932

 53 56  0  0  0  0  0  0  0  0999 V2000
    1.1290   -1.9541    1.0681 O   0  5  0  0  0  0  0  0  0  0  0  0
    1.8572   -2.8957    0.5084 C   0  0  0  0  0  0  0  0  0  0  0  0
    1.5387   -4.2578    0.7739 C   0  0  0  0  0  0  0  0  0  0  0  0
    0.6972   -4.4649    1.4516 H   0  0  0  0  0  0  0  0  0  0  0  0
    2.2795   -5.2914    0.2085 C   0  0  0  0  0  0  0  0  0  0  0  0
    2.0125   -6.3342    0.4400 H   0  0  0  0  0  0  0  0  0  0  0  0
    3.3710   -5.0189   -0.6516 C   0  0  0  0  0  0  0  0  0  0  0  0
    3.9527   -5.8422   -1.0900 H   0  0  0  0  0  0  0  0  0  0  0  0
    3.6966   -3.6988   -0.9321 C   0  0  0  0  0  3  0  0  0  0  0  0
    4.5401   -3.4661   -1.6014 H   0  0  0  0  0  0  0  0  0  0  0  0
    2.9608   -2.6132   -0.3721 C   0  0  0  0  0  0  0  0  0  0  0  0
    3.3241   -1.2787   -0.7256 C   0  0  0  0  0  0  0  0  0  0  0  0
    4.1704   -1.1798   -1.4277 H   0  0  0  0  0  0  0  0  0  0  0  0
    2.7445   -0.1645   -0.3138 N   0  0  0  0  0  2  0  0  0  0  0  0
    3.2067    1.1151   -0.7262 C   0  0  0  0  0  0  0  0  0  0  0  0
    4.3983    1.3697   -1.4335 C   0  0  0  0  0  0  0  0  0  0  0  0
    5.0935    0.5545   -1.6778 H   0  0  0  0  0  0  0  0  0  0  0  0
    4.7106    2.6785   -1.8146 C   0  0  0  0  0  0  0  0  0  0  0  0
    5.6420    2.8774   -2.3645 H   0  0  0  0  0  0  0  0  0  0  0  0
    3.8461    3.7368   -1.4756 C   0  0  0  0  0  0  0  0  0  0  0  0
    4.1000    4.7670   -1.7670 H   0  0  0  0  0  0  0  0  0  0  0  0
    2.6794    3.5051   -0.7394 C   0  0  0  0  0  0  0  0  0  0  0  0
    2.0187    4.3300   -0.4499 H   0  0  0  0  0  0  0  0  0  0  0  0
    2.3485    2.1863   -0.3562 C   0  0  0  0  0  0  0  0  0  0  0  0
    1.2762    1.7947    0.4652 N   0  0  0  0  0  2  0  0  0  0  0  0
   -0.2280    2.5344    0.3617 S   0  0  0  0  0  0  0  0  0  0  0  0
   -0.2031    3.8177   -0.3684 O   0  0  0  0  0  0  0  0  0  0  0  0
   -0.7578    2.5386    1.7668 O   0  0  0  0  0  0  0  0  0  0  0  0
   -1.2386    1.3190   -0.5401 C   0  0  0  0  0  0  0  0  0  0  0  0
   -0.5909    0.4807   -1.4418 C   0  0  0  0  0  0  0  0  0  0  0  0
    0.4756    0.6199   -1.6616 H   0  0  0  0  0  0  0  0  0  0  0  0
   -1.3114   -0.5594   -2.0772 C   0  0  0  0  0  0  0  0  0  0  0  0
   -0.8073   -1.1949   -2.8196 H   0  0  0  0  0  0  0  0  0  0  0  0
   -2.6423   -0.7836   -1.7444 C   0  0  0  0  0  0  0  0  0  0  0  0
   -3.2067   -1.5951   -2.2243 H   0  0  0  0  0  0  0  0  0  0  0  0
   -3.3283    0.0593   -0.8237 C   0  0  0  0  0  0  0  0  0  0  0  0
   -4.7177   -0.1760   -0.4870 C   0  0  0  0  0  0  0  0  0  0  0  0
   -5.3184   -1.3776   -0.8968 N   0  0  0  0  0  0  0  0  0  0  0  0
   -5.4175    0.8273    0.1902 C   0  0  0  0  0  0  0  0  0  0  0  0
   -6.4828    0.6927    0.4217 H   0  0  0  0  0  0  0  0  0  0  0  0
   -4.7576    1.9969    0.6361 C   0  0  0  0  0  0  0  0  0  0  0  0
   -5.3363    2.7623    1.1753 H   0  0  0  0  0  0  0  0  0  0  0  0
   -3.3943    2.1771    0.4580 C   0  0  0  0  0  0  0  0  0  0  0  0
   -2.8925    3.0635    0.8629 H   0  0  0  0  0  0  0  0  0  0  0  0
   -2.6447    1.2103   -0.2731 C   0  0  0  0  0  0  0  0  0  0  0  0
   -6.7582   -1.3964   -1.0622 C   0  0  0  0  0  0  0  0  0  0  0  0
   -7.3181   -1.4453   -0.0941 H   0  0  0  0  0  0  0  0  0  0  0  0
   -7.0432   -2.2924   -1.6509 H   0  0  0  0  0  0  0  0  0  0  0  0
   -7.0934   -0.4984   -1.6161 H   0  0  0  0  0  0  0  0  0  0  0  0
   -4.8000   -2.6228   -0.3290 C   0  0  0  0  0  0  0  0  0  0  0  0
   -3.7454   -2.5162   -0.0192 H   0  0  0  0  0  0  0  0  0  0  0  0
   -4.8785   -3.4547   -1.0611 H   0  0  0  0  0  0  0  0  0  0  0  0
   -5.3751   -2.9145    0.5835 H   0  0  0  0  0  0  0  0  0  0  0  0
  2  3  2  0  0  0  0
  2  1  1  0  0  0  0
  3  4  1  0  0  0  0
  5  6  1  0  0  0  0
  5  3  1  0  0  0  0
  7  5  2  0  0  0  0
  8  7  1  0  0  0  0
  9  7  1  0  0  0  0
  9 11  1  0  0  0  0
 10  9  1  0  0  0  0
 11  2  1  0  0  0  0
 12 11  2  0  0  0  0
 12 14  1  0  0  0  0
 13 12  1  0  0  0  0
 15 24  1  0  0  0  0
 15 14  1  0  0  0  0
 16 15  2  0  0  0  0
 17 16  1  0  0  0  0
 18 20  2  0  0  0  0
 18 16  1  0  0  0  0
 19 18  1  0  0  0  0
 20 22  1  0  0  0  0
 21 20  1  0  0  0  0
 22 23  1  0  0  0  0
 22 24  2  0  0  0  0
 24 25  1  0  0  0  0
 26 25  1  0  0  0  0
 26 28  2  0  0  0  0
 27 26  2  0  0  0  0
 29 45  1  0  0  0  0
 29 26  1  0  0  0  0
 30 29  2  0  0  0  0
 31 30  1  0  0  0  0
 32 34  2  0  0  0  0
 32 30  1  0  0  0  0
 33 32  1  0  0  0  0
 34 36  1  0  0  0  0
 35 34  1  0  0  0  0
 36 37  2  0  0  0  0
 36 45  1  0  0  0  0
 37 39  1  0  0  0  0
 38 37  1  0  0  0  0
 38 50  1  0  0  0  0
 39 40  1  0  0  0  0
 39 41  2  0  0  0  0
 41 42  1  0  0  0  0
 43 41  1  0  0  0  0
 43 44  1  0  0  0  0
 45 43  2  0  0  0  0
 46 38  1  0  0  0  0
 46 47  1  0  0  0  0
 48 46  1  0  0  0  0
 49 46  1  0  0  0  0
 50 51  1  0  0  0  0
 50 53  1  0  0  0  0
 52 50  1  0  0  0  0
M  CHG  1   1  -1
M  END
