1,13,23
q = -1.0, confidence = 0.072

 75 75  0  0  0  0  0  0  0  0999 V2000
   -1.5825    1.3631   -0.2937 O   0  5  0  0  0  0  0  0  0  0  0  0
   -0.2654    1.4479   -0.4510 C   0  0  0  0  0  0  0  0  0  0  0  0
    0.4920    2.5772    0.0095 C   0  0  0  0  0  0  0  0  0  0  0  0
    1.8888    2.5625   -0.1641 C   0  0  0  0  0  0  0  0  0  0  0  0
    2.4585    3.4206    0.2113 H   0  0  0  0  0  0  0  0  0  0  0  0
    2.5985    1.5096   -0.7778 C   0  0  0  0  0  0  0  0  0  0  0  0
    1.8349    0.4329   -1.2591 C   0  0  0  0  0  0  0  0  0  0  0  0
    2.3320   -0.4111   -1.7661 H   0  0  0  0  0  0  0  0  0  0  0  0
    0.4421    0.3908   -1.1090 C   0  0  0  0  0  0  0  0  0  0  0  0
   -0.3501   -0.7763   -1.6286 C   0  0  0  0  0  0  0  0  0  0  0  0
   -1.1847   -0.4029   -2.2550 H   0  0  0  0  0  0  0  0  0  0  0  0
    0.2887   -1.4200   -2.2768 H   0  0  0  0  0  0  0  0  0  0  0  0
   -0.9660   -1.5993   -0.5413 N   0  0  0  0  0  0  0  0  0  0  0  0
   -1.6730   -2.7805   -1.0704 C   0  0  0  0  0  0  0  0  0  0  0  0
   -1.9788   -3.3951   -0.1965 H   0  0  0  0  0  0  0  0  0  0  0  0
   -0.9701   -3.4062   -1.6716 H   0  0  0  0  0  0  0  0  0  0  0  0
   -2.9085   -2.4971   -1.9333 C   0  0  0  0  0  0  0  0  0  0  0  0
   -3.2258   -3.4751   -2.3515 H   0  0  0  0  0  0  0  0  0  0  0  0
   -2.6375   -1.8882   -2.8199 H   0  0  0  0  0  0  0  0  0  0  0  0
   -4.1346   -1.9123   -1.2263 C   0  0  0  0  0  0  0  0  0  0  0  0
   -5.0317   -2.0500   -1.8810 H   0  0  0  0  0  0  0  0  0  0  0  0
   -4.3273   -2.4927   -0.2989 H   0  0  0  0  0  0  0  0  0  0  0  0
   -4.0406   -0.4911   -0.8290 N   0  0  0  0  0  0  0  0  0  0  0  0
   -5.2027   -0.1301   -0.0015 C   0  0  0  0  0  0  0  0  0  0  0  0
   -6.1575   -0.2429   -0.5693 H   0  0  0  0  0  0  0  0  0  0  0  0
   -5.1098    0.9225    0.3283 H   0  0  0  0  0  0  0  0  0  0  0  0
   -5.2393   -0.7727    0.8982 H   0  0  0  0  0  0  0  0  0  0  0  0
   -3.9645    0.4133   -1.9857 C   0  0  0  0  0  0  0  0  0  0  0  0
   -4.9002    0.3685   -2.5930 H   0  0  0  0  0  0  0  0  0  0  0  0
   -3.1080    0.1506   -2.6307 H   0  0  0  0  0  0  0  0  0  0  0  0
   -3.7904    1.4455   -1.6313 H   0  0  0  0  0  0  0  0  0  0  0  0
    0.0208   -1.9717    0.5048 C   0  0  0  0  0  0  0  0  0  0  0  0
   -0.5412   -2.4783    1.3167 H   0  0  0  0  0  0  0  0  0  0  0  0
    0.4023   -1.0206    0.9285 H   0  0  0  0  0  0  0  0  0  0  0  0
    1.2123   -2.8239    0.0536 C   0  0  0  0  0  0  0  0  0  0  0  0
    0.8795   -3.8491   -0.2122 H   0  0  0  0  0  0  0  0  0  0  0  0
    1.6756   -2.3863   -0.8533 H   0  0  0  0  0  0  0  0  0  0  0  0
    2.2940   -2.8661    1.1361 C   0  0  0  0  0  0  0  0  0  0  0  0
    2.4579   -1.8286    1.4993 H   0  0  0  0  0  0  0  0  0  0  0  0
    1.9224   -3.4529    2.0238 H   0  0  0  0  0  0  0  0  0  0  0  0
    3.5806   -3.3590    0.6614 N   0  0  0  0  0  0  0  0  0  0  0  0
    4.6299   -3.1416    1.6405 C   0  0  0  0  0  0  0  0  0  0  0  0
    5.6101   -3.4454    1.2197 H   0  0  0  0  0  0  0  0  0  0  0  0
    4.4759   -3.7171    2.5938 H   0  0  0  0  0  0  0  0  0  0  0  0
    4.6898   -2.0653    1.8994 H   0  0  0  0  0  0  0  0  0  0  0  0
    3.5446   -4.7378    0.2120 C   0  0  0  0  0  0  0  0  0  0  0  0
    4.5428   -5.0340   -0.1693 H   0  0  0  0  0  0  0  0  0  0  0  0
    2.8222   -4.8643   -0.6183 H   0  0  0  0  0  0  0  0  0  0  0  0
    3.2629   -5.4631    1.0247 H   0  0  0  0  0  0  0  0  0  0  0  0
   -0.2188    3.7590    0.6960 C   0  0  0  0  0  0  0  0  0  0  0  0
   -0.9106    3.2646    1.9883 C   0  0  0  0  0  0  0  0  0  0  0  0
   -0.1625    2.8634    2.7026 H   0  0  0  0  0  0  0  0  0  0  0  0
   -1.6401    2.4656    1.7606 H   0  0  0  0  0  0  0  0  0  0  0  0
   -1.4454    4.1006    2.4868 H   0  0  0  0  0  0  0  0  0  0  0  0
   -1.2723    4.3556   -0.2666 C   0  0  0  0  0  0  0  0  0  0  0  0
   -2.0025    3.5808   -0.5651 H   0  0  0  0  0  0  0  0  0  0  0  0
   -0.7844    4.7522   -1.1806 H   0  0  0  0  0  0  0  0  0  0  0  0
   -1.8146    5.1919    0.2234 H   0  0  0  0  0  0  0  0  0  0  0  0
    0.7564    4.8846    1.0847 C   0  0  0  0  0  0  0  0  0  0  0  0
    1.5202    4.5428    1.8127 H   0  0  0  0  0  0  0  0  0  0  0  0
    0.1931    5.7135    1.5599 H   0  0  0  0  0  0  0  0  0  0  0  0
    1.2832    5.3013    0.2022 H   0  0  0  0  0  0  0  0  0  0  0  0
    4.1322    1.4825   -0.9042 C   0  0  0  0  0  0  0  0  0  0  0  0
    4.7797    2.7745   -0.3768 C   0  0  0  0  0  0  0  0  0  0  0  0
    4.4264    3.6667   -0.9323 H   0  0  0  0  0  0  0  0  0  0  0  0
    5.8814    2.7201   -0.4921 H   0  0  0  0  0  0  0  0  0  0  0  0
    4.5645    2.9339    0.6990 H   0  0  0  0  0  0  0  0  0  0  0  0
    4.6837    0.2915   -0.0846 C   0  0  0  0  0  0  0  0  0  0  0  0
    4.2748   -0.6803   -0.4290 H   0  0  0  0  0  0  0  0  0  0  0  0
    4.4194    0.4047    0.9873 H   0  0  0  0  0  0  0  0  0  0  0  0
    5.7908    0.2383   -0.1603 H   0  0  0  0  0  0  0  0  0  0  0  0
    4.5340    1.3117   -2.3864 C   0  0  0  0  0  0  0  0  0  0  0  0
    4.1312    0.3728   -2.8155 H   0  0  0  0  0  0  0  0  0  0  0  0
    5.6389    1.2811   -2.4928 H   0  0  0  0  0  0  0  0  0  0  0  0
    4.1505    2.1535   -2.9980 H   0  0  0  0  0  0  0  0  0  0  0  0
  2  1  1  0  0  0  0
  2  3  1  0  0  0  0
  3 50  1  0  0  0  0
  4  3  2  0  0  0  0
  4  5  1  0  0  0  0
  6  4  1  0  0  0  0
  7  9  1  0  0  0  0
  7  6  2  0  0  0  0
  8  7  1  0  0  0  0
  9  2  2  0  0  0  0
 10  9  1  0  0  0  0
 10 13  1  0  0  0  0
 11 10  1  0  0  0  0
 12 10  1  0  0  0  0
 13 32  1  0  0  0  0
 14 13  1  0  0  0  0
 14 15  1  0  0  0  0
 16 14  1  0  0  0  0
 17 20  1  0  0  0  0
 17 14  1  0  0  0  0
 18 17  1  0  0  0  0
 19 17  1  0  0  0  0
 20 23  1  0  0  0  0
 20 22  1  0  0  0  0
 21 20  1  0  0  0  0
 23 24  1  0  0  0  0
 24 26  1  0  0  0  0
 24 27  1  0  0  0  0
 25 24  1  0  0  0  0
 28 31  1  0  0  0  0
 28 23  1  0  0  0  0
 29 28  1  0  0  0  0
 30 28  1  0  0  0  0
 32 34  1  0  0  0  0
 32 33  1  0  0  0  0
 35 32  1  0  0  0  0
 35 38  1  0  0  0  0
 36 35  1  0  0  0  0
 37 35  1  0  0  0  0
 38 39  1  0  0  0  0
 38 40  1  0  0  0  0
 41 38  1  0  0  0  0
 41 42  1  0  0  0  0
 42 45  1  0  0  0  0
 42 44  1  0  0  0  0
 43 42  1  0  0  0  0
 46 41  1  0  0  0  0
 46 49  1  0  0  0  0
 47 46  1  0  0  0  0
 48 46  1  0  0  0  0
 50 59  1  0  0  0  0
 50 51  1  0  0  0  0
 51 54  1  0  0  0  0
 51 52  1  0  0  0  0
 53 51  1  0  0  0  0
 55 58  1  0  0  0  0
 55 50  1  0  0  0  0
 56 55  1  0  0  0  0
 57 55  1  0  0  0  0
 59 61  1  0  0  0  0
 59 60  1  0  0  0  0
 62 59  1  0  0  0  0
 63  6  1  0  0  0  0
 63 64  1  0  0  0  0
 63 68  1  0  0  0  0
 64 67  1  0  0  0  0
 65 64  1  0  0  0  0
 66 64  1  0  0  0  0
 68 70  1  0  0  0  0
 69 68  1  0  0  0  0
 71 68  1  0  0  0  0
 72 63  1  0  0  0  0
 73 72  1  0  0  0  0
 74 72  1  0  0  0  0
 75 72  1  0  0  0  0
M  CHG  1   1  -1
M  END
