1,3,4
q = -1.0, confidence = 0.01

 18 17  0  0  1  0  0  0  0  0999 V2000
    0.3847   -0.5484   -1.5197 O   0  5  0  0  0  0  0  0  0  0  0  0
    2.0834   -1.6824   -2.4821 O   0  0  0  0  0  0  0  0  0  0  0  0
    1.8538    0.2664    0.3885 N   0  0  0  0  0  2  0  0  0  0  0  0
   -0.0739    1.3620    1.8217 N   0  0  0  0  0  0  0  0  0  0  0  0
   -0.0764    2.3921    1.7617 H   0  0  0  0  0  0  0  0  0  0  0  0
   -0.9313    1.1002    2.3314 H   0  0  0  0  0  0  0  0  0  0  0  0
    1.6290   -1.0001   -1.5824 C   0  0  0  0  0  0  0  0  0  0  0  0
    1.1218    0.8823    2.5798 C   0  0  0  0  0  0  0  0  0  0  0  0
    0.8954   -0.1537    2.8946 H   0  0  0  0  0  0  0  0  0  0  0  0
    1.3148    1.5022    3.4788 H   0  0  0  0  0  0  0  0  0  0  0  0
    2.3207    0.8722    1.6310 C   0  0  0  0  0  0  0  0  0  0  0  0
    2.6675    1.9081    1.4133 H   0  0  0  0  0  0  0  0  0  0  0  0
    3.1752    0.3237    2.0763 H   0  0  0  0  0  0  0  0  0  0  0  0
    3.9008   -0.9888   -0.2960 C   0  0  0  0  0  0  0  0  0  0  0  0
    4.5722   -0.2568    0.1904 H   0  0  0  0  0  0  0  0  0  0  0  0
    4.2691   -1.2480   -1.3075 H   0  0  0  0  0  0  0  0  0  0  0  0
    3.9239   -1.9318    0.2947 H   0  0  0  0  0  0  0  0  0  0  0  0
    2.4963   -0.5246   -0.4093 C   0  0  2  0  0  3  0  0  0  0  0  0
  2  7  2  0  0  0  0
  3 11  1  0  0  0  0
  4  6  1  0  0  0  0
  4  8  1  0  0  0  0
  5  4  1  0  0  0  0
  7  1  1  0  0  0  0
  8  9  1  0  0  0  0
  8 10  1  0  0  0  0
 11 13  1  0  0  0  0
 11  8  1  0  0  0  0
 12 11  1  0  0  0  0
 14 15  1  0  0  0  0
 14 17  1  0  0  0  0
 16 14  1  0  0  0  0
 18  7  1  1  0  0  0
 18 14  1  0  0  0  0
 18  3  1  0  0  0  0
M  CHG  1   1  -1
M  END
