1,2,3
q = -1.0, confidence = 0.096

 73 76  0  0  0  0  0  0  0  0999 V2000
    0.6341   -2.1395    0.0688 O   0  5  0  0  0  0  0  0  0  0  0  0
    3.9382    0.1162   -0.2009 N   0  0  0  0  0  2  0  0  0  0  0  0
    1.4798    0.3585   -1.3244 N   0  0  0  0  0  0  0  0  0  0  0  0
   -1.2669    5.0792    1.1849 N   0  0  0  0  0  0  0  0  0  0  0  0
    5.0030    0.1212    0.6344 C   0  0  0  0  0  3  0  0  0  0  0  0
    5.9974    1.0991    0.5408 C   0  0  0  0  0  0  0  0  0  0  0  0
    5.8820    2.1078   -0.4281 C   0  0  0  0  0  0  0  0  0  0  0  0
    4.7738    2.0962   -1.2887 C   0  0  0  0  0  0  0  0  0  0  0  0
    3.8220    1.0785   -1.1642 C   0  0  0  0  0  0  0  0  0  0  0  0
    2.6409    0.9003   -2.0785 C   0  0  0  0  0  0  0  0  0  0  0  0
    0.5229   -0.3548   -2.2312 C   0  0  0  0  0  0  0  0  0  0  0  0
   -0.6902   -0.8704   -1.5137 C   0  0  0  0  0  0  0  0  0  0  0  0
   -0.5402   -1.7304   -0.3818 C   0  0  0  0  0  0  0  0  0  0  0  0
   -1.7357   -2.1838    0.2892 C   0  0  0  0  0  0  0  0  0  0  0  0
   -2.9752   -1.8169   -0.2506 C   0  0  0  0  0  0  0  0  0  0  0  0
   -3.1393   -0.9949   -1.3909 C   0  0  0  0  0  0  0  0  0  0  0  0
   -1.9682   -0.5218   -1.9939 C   0  0  0  0  0  0  0  0  0  0  0  0
    0.8340    1.3858   -0.4519 C   0  0  0  0  0  0  0  0  0  0  0  0
    0.0043    2.4736   -1.1573 C   0  0  0  0  0  0  0  0  0  0  0  0
   -0.6826    3.3295   -0.1337 C   0  0  0  0  0  0  0  0  0  0  0  0
   -0.4588    4.6711    0.1375 C   0  0  0  0  0  0  0  0  0  0  0  0
   -2.0285    4.0128    1.6243 C   0  0  0  0  0  0  0  0  0  0  0  0
   -2.9806    3.9306    2.6562 C   0  0  0  0  0  0  0  0  0  0  0  0
   -3.5927    2.6911    2.8728 C   0  0  0  0  0  0  0  0  0  0  0  0
   -3.2690    1.5628    2.0792 C   0  0  0  0  0  0  0  0  0  0  0  0
   -2.3266    1.6458    1.0501 C   0  0  0  0  0  0  0  0  0  0  0  0
   -1.6857    2.8838    0.8106 C   0  0  0  0  0  0  0  0  0  0  0  0
   -1.6324   -3.0216    1.5772 C   0  0  0  0  0  0  0  0  0  0  0  0
   -0.8638   -2.2110    2.6499 C   0  0  0  0  0  0  0  0  0  0  0  0
   -0.8936   -4.3507    1.2929 C   0  0  0  0  0  0  0  0  0  0  0  0
   -3.0203   -3.3624    2.1504 C   0  0  0  0  0  0  0  0  0  0  0  0
   -4.5502   -0.6542   -1.8990 C   0  0  0  0  0  0  0  0  0  0  0  0
   -5.3719    0.0019   -0.7662 C   0  0  0  0  0  0  0  0  0  0  0  0
   -4.5121    0.3206   -3.0885 C   0  0  0  0  0  0  0  0  0  0  0  0
   -5.2493   -1.9560   -2.3532 C   0  0  0  0  0  0  0  0  0  0  0  0
    5.0094   -0.7029    1.3679 H   0  0  0  0  0  0  0  0  0  0  0  0
    6.8505    1.0665    1.2332 H   0  0  0  0  0  0  0  0  0  0  0  0
    6.6442    2.8963   -0.5129 H   0  0  0  0  0  0  0  0  0  0  0  0
    4.6457    2.8669   -2.0626 H   0  0  0  0  0  0  0  0  0  0  0  0
    2.9003    0.1433   -2.8508 H   0  0  0  0  0  0  0  0  0  0  0  0
    2.3847    1.8435   -2.6081 H   0  0  0  0  0  0  0  0  0  0  0  0
    0.2085    0.3301   -3.0496 H   0  0  0  0  0  0  0  0  0  0  0  0
    1.1164   -1.1772   -2.6892 H   0  0  0  0  0  0  0  0  0  0  0  0
   -3.8812   -2.1748    0.2562 H   0  0  0  0  0  0  0  0  0  0  0  0
   -2.0237    0.1374   -2.8732 H   0  0  0  0  0  0  0  0  0  0  0  0
    0.1835    0.8328    0.2502 H   0  0  0  0  0  0  0  0  0  0  0  0
    1.6366    1.8518    0.1535 H   0  0  0  0  0  0  0  0  0  0  0  0
    0.6397    3.1040   -1.8142 H   0  0  0  0  0  0  0  0  0  0  0  0
   -0.7585    1.9891   -1.8021 H   0  0  0  0  0  0  0  0  0  0  0  0
    0.2238    5.3768   -0.3510 H   0  0  0  0  0  0  0  0  0  0  0  0
   -1.2994    6.0210    1.5692 H   0  0  0  0  0  0  0  0  0  0  0  0
   -3.2340    4.8065    3.2726 H   0  0  0  0  0  0  0  0  0  0  0  0
   -4.3392    2.5922    3.6752 H   0  0  0  0  0  0  0  0  0  0  0  0
   -3.7689    0.6015    2.2713 H   0  0  0  0  0  0  0  0  0  0  0  0
   -2.1010    0.7595    0.4393 H   0  0  0  0  0  0  0  0  0  0  0  0
    0.1737   -2.0064    2.3280 H   0  0  0  0  0  0  0  0  0  0  0  0
   -1.3744   -1.2466    2.8537 H   0  0  0  0  0  0  0  0  0  0  0  0
   -0.8229   -2.7845    3.5994 H   0  0  0  0  0  0  0  0  0  0  0  0
   -1.4352   -4.9442    0.5276 H   0  0  0  0  0  0  0  0  0  0  0  0
    0.1350   -4.1611    0.9356 H   0  0  0  0  0  0  0  0  0  0  0  0
   -0.8378   -4.9581    2.2205 H   0  0  0  0  0  0  0  0  0  0  0  0
   -2.8967   -3.9557    3.0785 H   0  0  0  0  0  0  0  0  0  0  0  0
   -3.5996   -2.4529    2.4128 H   0  0  0  0  0  0  0  0  0  0  0  0
   -3.6270   -3.9692    1.4473 H   0  0  0  0  0  0  0  0  0  0  0  0
   -4.8902    0.9362   -0.4149 H   0  0  0  0  0  0  0  0  0  0  0  0
   -6.3949    0.2473   -1.1205 H   0  0  0  0  0  0  0  0  0  0  0  0
   -5.4751   -0.6702    0.1089 H   0  0  0  0  0  0  0  0  0  0  0  0
   -3.9681   -0.1065   -3.9553 H   0  0  0  0  0  0  0  0  0  0  0  0
   -5.5442    0.5487   -3.4235 H   0  0  0  0  0  0  0  0  0  0  0  0
   -4.0295    1.2807   -2.8142 H   0  0  0  0  0  0  0  0  0  0  0  0
   -5.3241   -2.6865   -1.5231 H   0  0  0  0  0  0  0  0  0  0  0  0
   -6.2782   -1.7449   -2.7135 H   0  0  0  0  0  0  0  0  0  0  0  0
   -4.6859   -2.4405   -3.1763 H   0  0  0  0  0  0  0  0  0  0  0  0
  2  5  1  0  0  0  0
  3 18  1  0  0  0  0
  4 51  1  0  0  0  0
  4 22  1  0  0  0  0
  5 36  1  0  0  0  0
  6  5  1  0  0  0  0
  6 37  1  0  0  0  0
  7  6  2  0  0  0  0
  8  9  2  0  0  0  0
  8  7  1  0  0  0  0
  9  2  1  0  0  0  0
 10  3  1  0  0  0  0
 10  9  1  0  0  0  0
 11 12  1  0  0  0  0
 11  3  1  0  0  0  0
 12 13  1  0  0  0  0
 13  1  1  0  0  0  0
 13 14  2  0  0  0  0
 14 28  1  0  0  0  0
 15 44  1  0  0  0  0
 15 14  1  0  0  0  0
 16 15  2  0  0  0  0
 17 12  2  0  0  0  0
 17 16  1  0  0  0  0
 18 47  1  0  0  0  0
 18 46  1  0  0  0  0
 19 18  1  0  0  0  0
 19 20  1  0  0  0  0
 20 21  2  0  0  0  0
 20 27  1  0  0  0  0
 21  4  1  0  0  0  0
 22 23  1  0  0  0  0
 23 24  2  0  0  0  0
 23 52  1  0  0  0  0
 24 53  1  0  0  0  0
 25 54  1  0  0  0  0
 25 24  1  0  0  0  0
 26 25  2  0  0  0  0
 27 26  1  0  0  0  0
 27 22  2  0  0  0  0
 28 31  1  0  0  0  0
 28 29  1  0  0  0  0
 29 57  1  0  0  0  0
 29 58  1  0  0  0  0
 30 28  1  0  0  0  0
 30 61  1  0  0  0  0
 31 63  1  0  0  0  0
 31 62  1  0  0  0  0
 32 16  1  0  0  0  0
 32 33  1  0  0  0  0
 33 65  1  0  0  0  0
 33 67  1  0  0  0  0
 34 70  1  0  0  0  0
 34 32  1  0  0  0  0
 35 32  1  0  0  0  0
 35 71  1  0  0  0  0
 38  7  1  0  0  0  0
 39  8  1  0  0  0  0
 40 10  1  0  0  0  0
 41 10  1  0  0  0  0
 42 11  1  0  0  0  0
 43 11  1  0  0  0  0
 45 17  1  0  0  0  0
 48 19  1  0  0  0  0
 49 19  1  0  0  0  0
 50 21  1  0  0  0  0
 55 26  1  0  0  0  0
 56 29  1  0  0  0  0
 59 30  1  0  0  0  0
 60 30  1  0  0  0  0
 64 31  1  0  0  0  0
 66 33  1  0  0  0  0
 68 34  1  0  0  0  0
 69 34  1  0  0  0  0
 72 35  1  0  0  0  0
 73 35  1  0  0  0  0
M  CHG  1   1  -1
M  END
