1,5,9
q = -1.0, confidence = 0.01

 16 15  0  0  1  0  0  0  0  0999 V2000
    0.9839   -0.5240    1.4961 O   0  5  0  0  0  0  0  0  0  0  0  0
    3.0879   -1.1504    2.0561 O   0  0  0  0  0  0  0  0  0  0  0  0
    2.1736   -0.9889    1.2568 C   0  0  0  0  0  0  0  0  0  0  0  0
    2.4221   -1.2816   -0.2602 C   0  0  1  0  0  0  0  0  0  0  0  0
    1.1049   -1.4706   -0.8979 N   0  0  0  0  0  0  0  0  0  0  0  0
    3.1677   -0.0868   -0.8635 C   0  0  0  0  0  0  0  0  0  0  0  0
    2.4467    1.2320   -0.7054 C   0  0  1  0  0  3  0  0  0  0  0  0
    3.1608    2.3641   -0.8361 O   0  0  0  0  0  0  0  0  0  0  0  0
    1.1804    1.2992   -0.4756 N   0  0  0  0  0  2  0  0  0  0  0  0
    3.0633   -2.1826   -0.3507 H   0  0  0  0  0  0  0  0  0  0  0  0
    0.6439   -2.3347   -0.5634 H   0  0  0  0  0  0  0  0  0  0  0  0
    1.1689   -1.5219   -1.9261 H   0  0  0  0  0  0  0  0  0  0  0  0
    3.4029   -0.2429   -1.9431 H   0  0  0  0  0  0  0  0  0  0  0  0
    4.1419   -0.0206   -0.3333 H   0  0  0  0  0  0  0  0  0  0  0  0
    4.1131    2.1543   -0.8909 H   0  0  0  0  0  0  0  0  0  0  0  0
    0.8176    2.2433   -0.2682 H   0  0  0  0  0  0  0  0  0  0  0  0
  3  1  1  0  0  0  0
  3  2  2  0  0  0  0
  4 10  1  6  0  0  0
  4  3  1  0  0  0  0
  5 11  1  0  0  0  0
  5  4  1  0  0  0  0
  6  7  1  0  0  0  0
  6 14  1  0  0  0  0
  6  4  1  0  0  0  0
  7  8  1  6  0  0  0
  7  9  1  0  0  0  0
  9 16  1  0  0  0  0
 12  5  1  0  0  0  0
 13  6  1  0  0  0  0
 15  8  1  0  0  0  0
M  CHG  1   1  -1
M  END
