2,3,5
q = -2.0, confidence = 0.946

 36 37  0  0  1  0  0  0  0  0999 V2000
   -1.4996    4.3772    0.1698 S   0  0  0  0  0  0  0  0  0  0  0  0
    2.1065   -0.4317   -0.8339 O   0  0  0  0  0  1  0  0  0  0  0  0
    1.7069    2.1936   -0.1161 N   0  0  0  0  0  2  0  0  0  0  0  0
    0.9669    3.3238    0.0912 N   0  0  0  0  0  0  0  0  0  0  0  0
   -0.7658    1.7949   -0.2368 N   0  0  0  0  0  2  0  0  0  0  0  0
    3.8969    1.1601   -0.3721 C   0  0  0  0  0  0  0  0  0  0  0  0
    3.0365    2.2827   -0.0474 C   0  0  0  0  0  0  0  0  0  0  0  0
    5.3142    1.3204   -0.3320 C   0  0  0  0  0  0  0  0  0  0  0  0
    3.3814   -0.1288   -0.7639 C   0  0  1  0  0  3  0  0  0  0  0  0
   -2.1401    1.5537   -0.4921 C   0  0  0  0  0  0  0  0  0  0  0  0
   -0.3234    3.0541    0.0106 C   0  0  0  0  0  0  0  0  0  0  0  0
    4.3018   -1.1685   -1.0925 C   0  0  0  0  0  0  0  0  0  0  0  0
    3.6538    3.5972    0.3581 C   0  0  0  0  0  0  0  0  0  0  0  0
   -2.5586    1.2684   -1.8101 C   0  0  0  0  0  0  0  0  0  0  0  0
   -0.3697    5.7910    0.3442 C   0  0  0  0  0  0  0  0  0  0  0  0
    6.1924    0.2917   -0.6580 C   0  0  0  0  0  0  0  0  0  0  0  0
    5.6761   -0.9658   -1.0441 C   0  0  0  0  0  0  0  0  0  0  0  0
   -3.1049    1.6015    0.5372 C   0  0  0  0  0  0  0  0  0  0  0  0
   -3.9104    1.0440   -2.0941 C   0  0  0  0  0  0  0  0  0  0  0  0
   -4.8664    1.0992   -1.0660 C   0  0  0  0  0  0  0  0  0  0  0  0
   -4.4592    1.3772    0.2477 C   0  0  0  0  0  0  0  0  0  0  0  0
    5.7310    2.2947   -0.0435 H   0  0  0  0  0  0  0  0  0  0  0  0
    7.2784    0.4611   -0.6161 H   0  0  0  0  0  0  0  0  0  0  0  0
    6.3592   -1.7897   -1.3038 H   0  0  0  0  0  0  0  0  0  0  0  0
    3.8683   -2.1367   -1.3823 H   0  0  0  0  0  0  0  0  0  0  0  0
    4.2193    4.0435   -0.4863 H   0  0  0  0  0  0  0  0  0  0  0  0
    2.8605    4.3002    0.6600 H   0  0  0  0  0  0  0  0  0  0  0  0
    4.3681    3.4556    1.1933 H   0  0  0  0  0  0  0  0  0  0  0  0
    0.2414    5.6963    1.2608 H   0  0  0  0  0  0  0  0  0  0  0  0
    0.2985    5.8645   -0.5335 H   0  0  0  0  0  0  0  0  0  0  0  0
   -1.0196    6.6847    0.4089 H   0  0  0  0  0  0  0  0  0  0  0  0
   -2.7836    1.8259    1.5632 H   0  0  0  0  0  0  0  0  0  0  0  0
   -5.2019    1.4212    1.0591 H   0  0  0  0  0  0  0  0  0  0  0  0
   -5.9292    0.9215   -1.2896 H   0  0  0  0  0  0  0  0  0  0  0  0
   -4.2203    0.8198   -3.1257 H   0  0  0  0  0  0  0  0  0  0  0  0
   -1.7980    1.2330   -2.6032 H   0  0  0  0  0  0  0  0  0  0  0  0
  1 15  1  0  0  0  0
  3  7  1  0  0  0  0
  3  4  1  0  0  0  0
  5 11  1  0  0  0  0
  6  8  1  0  0  0  0
  6  7  2  0  0  0  0
  7 13  1  0  0  0  0
  8 22  1  0  0  0  0
  9  2  1  1  0  0  0
  9  6  1  0  0  0  0
 10  5  1  0  0  0  0
 10 18  1  0  0  0  0
 11  4  2  0  0  0  0
 11  1  1  0  0  0  0
 12 17  2  0  0  0  0
 12  9  1  0  0  0  0
 13 27  1  0  0  0  0
 13 28  1  0  0  0  0
 14 10  2  0  0  0  0
 15 31  1  0  0  0  0
 15 29  1  0  0  0  0
 16 23  1  0  0  0  0
 16  8  2  0  0  0  0
 17 16  1  0  0  0  0
 18 32  1  0  0  0  0
 19 14  1  0  0  0  0
 19 20  2  0  0  0  0
 20 21  1  0  0  0  0
 21 18  2  0  0  0  0
 21 33  1  0  0  0  0
 24 17  1  0  0  0  0
 25 12  1  0  0  0  0
 26 13  1  0  0  0  0
 30 15  1  0  0  0  0
 34 20  1  0  0  0  0
 35 19  1  0  0  0  0
 36 14  1  0  0  0  0
M  END
