20,23,24
q = -2.0, confidence = 0.806

 38 40  0  0  0  0  0  0  0  0999 V2000
    0.4853    1.5454   -0.0226 C   0  0  0  0  0  0  0  0  0  0  0  0
    0.9838    2.9431   -0.0047 C   0  0  0  0  0  0  0  0  0  0  0  0
    0.0845    4.0275    0.0952 C   0  0  0  0  0  0  0  0  0  0  0  0
    0.5573    5.3460    0.1171 C   0  0  0  0  0  0  0  0  0  0  0  0
    1.9347    5.6091    0.0388 C   0  0  0  0  0  0  0  0  0  0  0  0
    2.8358    4.5359   -0.0617 C   0  0  0  0  0  0  0  0  0  0  0  0
    2.3678    3.2162   -0.0829 C   0  0  0  0  0  0  0  0  0  0  0  0
   -2.7851    0.0912   -0.1195 C   0  0  0  0  0  0  0  0  0  0  0  0
   -3.2225   -1.2520    0.0921 C   0  0  0  0  0  0  0  0  0  0  0  0
   -4.6126   -1.5249    0.0460 C   0  0  0  0  0  0  0  0  0  0  0  0
   -5.5094   -0.4833   -0.2066 C   0  0  0  0  0  0  0  0  0  0  0  0
   -5.0586    0.8430   -0.4153 C   0  0  0  0  0  0  0  0  0  0  0  0
   -3.6944    1.1387   -0.3713 C   0  0  0  0  0  0  0  0  0  0  0  0
    2.2332   -1.5486   -0.1426 C   0  0  0  0  0  0  0  0  0  0  0  0
    3.3856   -1.3214    0.6368 C   0  0  0  0  0  0  0  0  0  0  0  0
    4.4791   -2.1917    0.5357 C   0  0  0  0  0  0  0  0  0  0  0  0
    4.4425   -3.2867   -0.3447 C   0  0  0  0  0  0  0  0  0  0  0  0
    3.3040   -3.4989   -1.1400 C   0  0  0  0  0  0  0  0  0  0  0  0
    2.2046   -2.6329   -1.0451 C   0  0  0  0  0  0  0  0  0  0  0  0
   -1.3887    0.2056   -0.0196 N   0  0  0  0  0  2  0  0  0  0  0  0
   -0.8588    1.3757   -0.0496 N   0  0  0  0  0  0  0  0  0  0  0  0
    1.4063    0.5698   -0.0524 N   0  0  0  0  0  2  0  0  0  0  0  0
    1.0932   -0.6953   -0.0404 N   0  0  0  0  0  2  0  0  0  0  0  0
   -2.2936   -2.1598    0.3206 O   0  5  0  0  0  0  0  0  0  0  0  0
   -0.9924    3.8167    0.1583 H   0  0  0  0  0  0  0  0  0  0  0  0
   -0.1588    6.1784    0.1971 H   0  0  0  0  0  0  0  0  0  0  0  0
    2.3044    6.6457    0.0556 H   0  0  0  0  0  0  0  0  0  0  0  0
    3.9177    4.7297   -0.1265 H   0  0  0  0  0  0  0  0  0  0  0  0
    3.0670    2.3721   -0.1662 H   0  0  0  0  0  0  0  0  0  0  0  0
   -4.9551   -2.5572    0.2091 H   0  0  0  0  0  0  0  0  0  0  0  0
   -6.5884   -0.6996   -0.2455 H   0  0  0  0  0  0  0  0  0  0  0  0
   -5.7860    1.6436   -0.6146 H   0  0  0  0  0  0  0  0  0  0  0  0
   -3.3124    2.1563   -0.5292 H   0  0  0  0  0  0  0  0  0  0  0  0
    3.4002   -0.4568    1.3153 H   0  0  0  0  0  0  0  0  0  0  0  0
    5.3720   -2.0136    1.1544 H   0  0  0  0  0  0  0  0  0  0  0  0
    5.3052   -3.9652   -0.4209 H   0  0  0  0  0  0  0  0  0  0  0  0
    3.2788   -4.3334   -1.8575 H   0  0  0  0  0  0  0  0  0  0  0  0
    1.3232   -2.7603   -1.6925 H   0  0  0  0  0  0  0  0  0  0  0  0
  1  2  1  0  0  0  0
  2  3  1  0  0  0  0
  3  4  2  0  0  0  0
  3 25  1  0  0  0  0
  4 26  1  0  0  0  0
  5 27  1  0  0  0  0
  5  4  1  0  0  0  0
  6  5  2  0  0  0  0
  7  6  1  0  0  0  0
  7  2  2  0  0  0  0
  8 20  1  0  0  0  0
  8  9  1  0  0  0  0
  9 24  1  0  0  0  0
 10  9  2  0  0  0  0
 10 30  1  0  0  0  0
 11 10  1  0  0  0  0
 12 13  1  0  0  0  0
 12 11  2  0  0  0  0
 13  8  2  0  0  0  0
 14 23  1  0  0  0  0
 14 15  1  0  0  0  0
 15 34  1  0  0  0  0
 16 15  2  0  0  0  0
 16 35  1  0  0  0  0
 17 16  1  0  0  0  0
 18 19  1  0  0  0  0
 18 17  2  0  0  0  0
 19 14  2  0  0  0  0
 21  1  2  0  0  0  0
 21 20  1  0  0  0  0
 22 23  1  0  0  0  0
 22  1  1  0  0  0  0
 28  6  1  0  0  0  0
 29  7  1  0  0  0  0
 31 11  1  0  0  0  0
 32 12  1  0  0  0  0
 33 13  1  0  0  0  0
 36 17  1  0  0  0  0
 37 18  1  0  0  0  0
 38 19  1  0  0  0  0
M  CHG  1  24  -1
M  END
