1,2,3
q = -1.0, confidence = 0.004

 32 32  0  0  1  0  0  0  0  0999 V2000
    1.0756    1.1692   -0.2872 O   0  0  0  0  0  1  0  0  0  0  0  0
    1.1150   -1.7400   -0.1914 N   0  0  0  0  0  2  0  0  0  0  0  0
   -1.9621   -1.6150    0.2229 N   0  0  0  0  0  0  0  0  0  0  0  0
    2.3721    1.0487   -0.1009 C   0  0  1  0  0  3  0  0  0  0  0  0
    3.0554   -0.2072    0.0458 C   0  0  0  0  0  0  0  0  0  0  0  0
    4.4719   -0.2100    0.2422 C   0  0  0  0  0  0  0  0  0  0  0  0
    4.9833   -1.1800    0.3460 H   0  0  0  0  0  0  0  0  0  0  0  0
    5.1965    0.9691    0.2971 C   0  0  0  0  0  0  0  0  0  0  0  0
    6.2841    0.9505    0.4521 H   0  0  0  0  0  0  0  0  0  0  0  0
    4.5157    2.2028    0.1386 C   0  0  0  0  0  0  0  0  0  0  0  0
    5.0831    3.1455    0.1730 H   0  0  0  0  0  0  0  0  0  0  0  0
    3.1408    2.2462   -0.0609 C   0  0  0  0  0  0  0  0  0  0  0  0
    2.6075    3.1990   -0.1862 H   0  0  0  0  0  0  0  0  0  0  0  0
    2.4012   -1.4682   -0.0730 C   0  0  0  0  0  0  0  0  0  0  0  0
    3.0769   -2.3445   -0.0961 H   0  0  0  0  0  0  0  0  0  0  0  0
    0.7784   -3.1291   -0.5248 C   0  0  0  0  0  0  0  0  0  0  0  0
    0.6100   -3.1926   -1.6235 H   0  0  0  0  0  0  0  0  0  0  0  0
    1.6561   -3.7697   -0.3004 H   0  0  0  0  0  0  0  0  0  0  0  0
   -0.4459   -3.6665    0.1990 C   0  0  0  0  0  0  0  0  0  0  0  0
   -0.3111   -3.6017    1.2985 H   0  0  0  0  0  0  0  0  0  0  0  0
   -0.5260   -4.7482   -0.0322 H   0  0  0  0  0  0  0  0  0  0  0  0
   -1.7445   -3.0197   -0.2509 C   0  0  0  0  0  0  0  0  0  0  0  0
   -1.7802   -2.9937   -1.3588 H   0  0  0  0  0  0  0  0  0  0  0  0
   -2.6168   -3.6187    0.0925 H   0  0  0  0  0  0  0  0  0  0  0  0
   -2.2292   -1.6191    1.6897 C   0  0  0  0  0  0  0  0  0  0  0  0
   -3.0949   -2.2785    1.9167 H   0  0  0  0  0  0  0  0  0  0  0  0
   -2.4634   -0.5928    2.0226 H   0  0  0  0  0  0  0  0  0  0  0  0
   -1.3405   -1.9744    2.2390 H   0  0  0  0  0  0  0  0  0  0  0  0
   -3.1840   -1.1219   -0.4743 C   0  0  0  0  0  0  0  0  0  0  0  0
   -2.9808   -1.0270   -1.5564 H   0  0  0  0  0  0  0  0  0  0  0  0
   -3.4849   -0.1423   -0.0685 H   0  0  0  0  0  0  0  0  0  0  0  0
   -4.0161   -1.8414   -0.3218 H   0  0  0  0  0  0  0  0  0  0  0  0
  2 14  1  0  0  0  0
  3 25  1  0  0  0  0
  4  1  1  6  0  0  0
  4 12  1  0  0  0  0
  4  5  1  0  0  0  0
  5  6  1  0  0  0  0
  6  8  2  0  0  0  0
  6  7  1  0  0  0  0
  8  9  1  0  0  0  0
 10 11  1  0  0  0  0
 10  8  1  0  0  0  0
 12 10  2  0  0  0  0
 13 12  1  0  0  0  0
 14  5  2  0  0  0  0
 15 14  1  0  0  0  0
 16 18  1  0  0  0  0
 16  2  1  0  0  0  0
 16 19  1  0  0  0  0
 17 16  1  0  0  0  0
 19 20  1  0  0  0  0
 21 19  1  0  0  0  0
 22 24  1  0  0  0  0
 22 19  1  0  0  0  0
 22  3  1  0  0  0  0
 23 22  1  0  0  0  0
 25 26  1  0  0  0  0
 25 27  1  0  0  0  0
 25 28  1  0  0  0  0
 29 32  1  0  0  0  0
 29 31  1  0  0  0  0
 29  3  1  0  0  0  0
 30 29  1  0  0  0  0
M  END
