1,14,21
q = -1.0, confidence = 0.0

 35 35  0  0  0  0  0  0  0  0999 V2000
    0.7023   -1.4250   -0.2896 O   0  5  0  0  0  0  0  0  0  0  0  0
    1.8941   -0.9204   -0.2082 C   0  0  0  0  0  0  0  0  0  0  0  0
    3.0375   -1.7610   -0.3711 C   0  0  0  0  0  0  0  0  0  0  0  0
    2.8597   -2.8299   -0.5549 H   0  0  0  0  0  0  0  0  0  0  0  0
    4.3257   -1.2472   -0.2970 C   0  0  0  0  0  0  0  0  0  0  0  0
    5.1971   -1.9064   -0.4216 H   0  0  0  0  0  0  0  0  0  0  0  0
    4.5370    0.1350   -0.0585 C   0  0  0  0  0  0  0  0  0  0  0  0
    6.1691    0.7522    0.0299 Cl  0  0  0  0  0  0  0  0  0  0  0  0
    3.4532    0.9873    0.1026 C   0  0  0  0  0  0  0  0  0  0  0  0
    3.6192    2.0595    0.2864 H   0  0  0  0  0  0  0  0  0  0  0  0
    2.1250    0.4819    0.0307 C   0  0  0  0  0  0  0  0  0  0  0  0
    1.0302    1.3893    0.1944 C   0  0  0  0  0  3  0  0  0  0  0  0
    1.3136    2.4489    0.3791 H   0  0  0  0  0  0  0  0  0  0  0  0
   -0.2461    1.0988    0.1537 N   0  0  0  0  0  2  0  0  0  0  0  0
   -1.1896    2.1946    0.3647 C   0  0  0  0  0  0  0  0  0  0  0  0
   -1.4167    2.6871   -0.6073 H   0  0  0  0  0  0  0  0  0  0  0  0
   -0.7667    2.9802    1.0280 H   0  0  0  0  0  0  0  0  0  0  0  0
   -2.4528    1.6163    0.9766 C   0  0  0  0  0  0  0  0  0  0  0  0
   -2.2298    1.2397    1.9953 H   0  0  0  0  0  0  0  0  0  0  0  0
   -3.2455    2.3926    1.0682 H   0  0  0  0  0  0  0  0  0  0  0  0
   -2.9133    0.4538    0.1877 N   0  0  0  0  0  0  0  0  0  0  0  0
   -3.3078    0.8087   -1.2077 C   0  0  0  0  0  0  0  0  0  0  0  0
   -3.5339   -0.1493   -1.7102 H   0  0  0  0  0  0  0  0  0  0  0  0
   -2.4042    1.1889   -1.7252 H   0  0  0  0  0  0  0  0  0  0  0  0
   -4.4579    1.8030   -1.3474 C   0  0  0  0  0  0  0  0  0  0  0  0
   -5.3922    1.4317   -0.8813 H   0  0  0  0  0  0  0  0  0  0  0  0
   -4.6689    1.9630   -2.4232 H   0  0  0  0  0  0  0  0  0  0  0  0
   -4.2286    2.7957   -0.9091 H   0  0  0  0  0  0  0  0  0  0  0  0
   -4.0160   -0.2212    0.9469 C   0  0  0  0  0  0  0  0  0  0  0  0
   -4.7815    0.5477    1.2055 H   0  0  0  0  0  0  0  0  0  0  0  0
   -3.5493   -0.5659    1.8893 H   0  0  0  0  0  0  0  0  0  0  0  0
   -4.6653   -1.4030    0.2435 C   0  0  0  0  0  0  0  0  0  0  0  0
   -5.2799   -1.0985   -0.6274 H   0  0  0  0  0  0  0  0  0  0  0  0
   -5.3389   -1.9136    0.9595 H   0  0  0  0  0  0  0  0  0  0  0  0
   -3.8984   -2.1217   -0.1031 H   0  0  0  0  0  0  0  0  0  0  0  0
  1  2  1  0  0  0  0
  2 11  1  0  0  0  0
  3  5  1  0  0  0  0
  3  2  2  0  0  0  0
  4  3  1  0  0  0  0
  5  7  2  0  0  0  0
  6  5  1  0  0  0  0
  7  8  1  0  0  0  0
  7  9  1  0  0  0  0
  9 10  1  0  0  0  0
 11  9  2  0  0  0  0
 11 12  1  0  0  0  0
 12 13  1  0  0  0  0
 14 12  1  0  0  0  0
 14 15  1  0  0  0  0
 15 18  1  0  0  0  0
 15 17  1  0  0  0  0
 16 15  1  0  0  0  0
 18 20  1  0  0  0  0
 18 19  1  0  0  0  0
 21 29  1  0  0  0  0
 21 18  1  0  0  0  0
 22 21  1  0  0  0  0
 23 22  1  0  0  0  0
 24 22  1  0  0  0  0
 25 22  1  0  0  0  0
 25 28  1  0  0  0  0
 25 26  1  0  0  0  0
 27 25  1  0  0  0  0
 29 30  1  0  0  0  0
 29 31  1  0  0  0  0
 32 29  1  0  0  0  0
 32 34  1  0  0  0  0
 33 32  1  0  0  0  0
 35 32  1  0  0  0  0
M  CHG  1   1  -1
M  END
