1,3,15
q = -2.0, confidence = 0.974

 48 51  0  0  1  0  0  0  0  0999 V2000
    1.1584   -0.2827   -0.4229 O   0  5  0  0  0  0  0  0  0  0  0  0
   -2.7222    1.7104   -0.5972 C   0  0  0  0  0  0  0  0  0  0  0  0
   -0.4196    1.5991   -0.4328 N   0  0  0  0  0  2  0  0  0  0  0  0
   -3.8802   -0.1268   -0.7522 C   0  0  0  0  0  0  0  0  0  0  0  0
    3.0655    1.0840   -0.6646 N   0  0  0  0  0  0  0  0  0  0  0  0
   -1.4721    2.4422   -0.5684 C   0  0  1  0  0  3  0  0  0  0  0  0
    4.0412    0.0813   -0.6009 C   0  0  0  0  0  0  0  0  0  0  0  0
   -4.7227    1.0413   -0.8546 C   0  0  0  0  0  0  0  0  0  0  0  0
    1.7955    0.8725   -0.5725 C   0  0  0  0  0  0  0  0  0  0  0  0
    0.0642    4.2812   -0.8476 C   0  0  0  0  0  0  0  0  0  0  0  0
    0.2583    5.3539   -0.9981 H   0  0  0  0  0  0  0  0  0  0  0  0
   -1.2583    3.8194   -0.7589 C   0  0  0  0  0  0  0  0  0  0  0  0
   -2.1273    4.4832   -0.8620 H   0  0  0  0  0  0  0  0  0  0  0  0
   -3.9574    2.1838   -0.7553 N   0  0  0  0  0  0  0  0  0  0  0  0
   -2.5882    0.3281   -0.5743 N   0  0  0  0  0  0  0  0  0  0  0  0
    0.8485    2.0210   -0.5908 C   0  0  0  0  0  0  0  0  0  0  0  0
    1.1414    3.3773   -0.7883 C   0  0  0  0  0  0  0  0  0  0  0  0
    2.1898    3.6823   -0.9067 H   0  0  0  0  0  0  0  0  0  0  0  0
    5.0526    0.2548    0.3948 C   0  0  0  0  0  0  0  0  0  0  0  0
    6.1408   -1.7927   -0.3731 C   0  0  0  0  0  0  0  0  0  0  0  0
    6.9541   -2.5286   -0.2835 H   0  0  0  0  0  0  0  0  0  0  0  0
   -6.6396   -0.3906   -1.1230 C   0  0  0  0  0  0  0  0  0  0  0  0
   -7.7216   -0.5302   -1.2679 H   0  0  0  0  0  0  0  0  0  0  0  0
   -4.4183   -1.4246   -0.8580 C   0  0  0  0  0  3  0  0  0  0  0  0
   -3.7675   -2.3082   -0.8200 H   0  0  0  0  0  0  0  0  0  0  0  0
    5.5970    2.7239    0.5697 C   0  0  0  0  0  0  0  0  0  0  0  0
    5.5804    3.6110    1.2358 H   0  0  0  0  0  0  0  0  0  0  0  0
    4.9868    2.9499   -0.3272 H   0  0  0  0  0  0  0  0  0  0  0  0
    6.6427    2.5630    0.2383 H   0  0  0  0  0  0  0  0  0  0  0  0
   -5.8014   -1.5342   -1.0408 C   0  0  0  0  0  0  0  0  0  0  0  0
   -6.2523   -2.5342   -1.1323 H   0  0  0  0  0  0  0  0  0  0  0  0
    4.1120   -1.0112   -1.5126 C   0  0  0  0  0  0  0  0  0  0  0  0
    5.1757   -1.9259   -1.3764 C   0  0  0  0  0  0  0  0  0  0  0  0
    5.2433   -2.7639   -2.0886 H   0  0  0  0  0  0  0  0  0  0  0  0
   -6.1154    0.9017   -1.0391 C   0  0  0  0  0  0  0  0  0  0  0  0
   -6.7530    1.7942   -1.1179 H   0  0  0  0  0  0  0  0  0  0  0  0
    5.0486    1.4793    1.2848 C   0  0  0  0  0  0  0  0  0  0  0  0
    5.6564    1.2691    2.1898 H   0  0  0  0  0  0  0  0  0  0  0  0
    4.0183    1.6898    1.6358 H   0  0  0  0  0  0  0  0  0  0  0  0
    6.0742   -0.6999    0.5045 C   0  0  0  0  0  0  0  0  0  0  0  0
    6.8376   -0.5728    1.2888 H   0  0  0  0  0  0  0  0  0  0  0  0
    3.1348   -1.1969   -2.6551 C   0  0  0  0  0  0  0  0  0  0  0  0
    2.4531   -0.3279   -2.7231 H   0  0  0  0  0  0  0  0  0  0  0  0
    3.7149   -1.2019   -3.6046 H   0  0  0  0  0  0  0  0  0  0  0  0
    2.3158   -2.4904   -2.5579 C   0  0  0  0  0  0  0  0  0  0  0  0
    1.6171   -2.5845   -3.4133 H   0  0  0  0  0  0  0  0  0  0  0  0
    1.7105   -2.5021   -1.6324 H   0  0  0  0  0  0  0  0  0  0  0  0
    2.9706   -3.3858   -2.5565 H   0  0  0  0  0  0  0  0  0  0  0  0
  2 15  1  0  0  0  0
  4 15  2  0  0  0  0
  5  7  1  0  0  0  0
  5  9  2  0  0  0  0
  6  2  1  6  0  0  0
  6  3  1  0  0  0  0
  7 19  1  0  0  0  0
  8 14  1  0  0  0  0
  8  4  1  0  0  0  0
  9  1  1  0  0  0  0
 10 17  1  0  0  0  0
 10 12  2  0  0  0  0
 11 10  1  0  0  0  0
 12  6  1  0  0  0  0
 13 12  1  0  0  0  0
 14  2  2  0  0  0  0
 16  9  1  0  0  0  0
 16  3  1  0  0  0  0
 17 16  2  0  0  0  0
 18 17  1  0  0  0  0
 19 40  2  0  0  0  0
 19 37  1  0  0  0  0
 20 21  1  0  0  0  0
 20 40  1  0  0  0  0
 22 30  2  0  0  0  0
 22 35  1  0  0  0  0
 23 22  1  0  0  0  0
 24 25  1  0  0  0  0
 24  4  1  0  0  0  0
 26 27  1  0  0  0  0
 26 37  1  0  0  0  0
 28 26  1  0  0  0  0
 29 26  1  0  0  0  0
 30 24  1  0  0  0  0
 31 30  1  0  0  0  0
 32 33  1  0  0  0  0
 32  7  2  0  0  0  0
 33 20  2  0  0  0  0
 34 33  1  0  0  0  0
 35  8  2  0  0  0  0
 36 35  1  0  0  0  0
 37 39  1  0  0  0  0
 37 38  1  0  0  0  0
 40 41  1  0  0  0  0
 42 45  1  0  0  0  0
 42 32  1  0  0  0  0
 43 42  1  0  0  0  0
 44 42  1  0  0  0  0
 45 48  1  0  0  0  0
 45 47  1  0  0  0  0
 46 45  1  0  0  0  0
M  CHG  1   1  -1
M  END
