1,2,4
q = -2.0, confidence = 0.972

 38 40  0  0  1  0  0  0  0  0999 V2000
    1.5882   -0.4587   -0.8984 O   0  5  0  0  0  0  0  0  0  0  0  0
   -2.0128    0.5851   -0.4929 N   0  0  0  0  0  0  0  0  0  0  0  0
   -3.1276    2.5301    0.0787 N   0  0  0  0  0  0  0  0  0  0  0  0
    0.3095    1.4772   -0.1145 N   0  0  0  0  0  2  0  0  0  0  0  0
    3.6491    0.6839   -0.9437 N   0  0  0  0  0  0  0  0  0  0  0  0
   -3.3609    0.3630   -0.6929 C   0  0  0  0  0  0  0  0  0  0  0  0
   -4.0727   -0.7546   -1.1722 C   0  0  0  0  0  0  0  0  0  0  0  0
   -3.5439   -1.6634   -1.4890 H   0  0  0  0  0  0  0  0  0  0  0  0
   -5.4652   -0.6431   -1.2535 C   0  0  0  0  0  0  0  0  0  0  0  0
   -6.0503   -1.4966   -1.6290 H   0  0  0  0  0  0  0  0  0  0  0  0
   -6.1454    0.5454   -0.8761 C   0  0  0  0  0  0  0  0  0  0  0  0
   -7.2423    0.5829   -0.9593 H   0  0  0  0  0  0  0  0  0  0  0  0
   -5.4492    1.6667   -0.4180 C   0  0  0  0  0  0  0  0  0  0  0  0
   -5.9645    2.5971   -0.1382 H   0  0  0  0  0  0  0  0  0  0  0  0
   -4.0430    1.5816   -0.3255 C   0  0  0  0  0  0  0  0  0  0  0  0
   -1.9609    1.8978   -0.0413 C   0  0  0  0  0  3  0  0  0  0  0  0
   -0.6233    2.4306    0.1244 C   0  0  2  0  0  3  0  0  0  0  0  0
   -0.2311    3.7567    0.3809 C   0  0  0  0  0  0  0  0  0  0  0  0
   -1.0039    4.5119    0.5780 H   0  0  0  0  0  0  0  0  0  0  0  0
    1.1374    4.0662    0.3327 C   0  0  0  0  0  0  0  0  0  0  0  0
    1.4699    5.0973    0.5265 H   0  0  0  0  0  0  0  0  0  0  0  0
    2.0813    3.0796   -0.0083 C   0  0  0  0  0  0  0  0  0  0  0  0
    3.1539    3.2855   -0.1236 H   0  0  0  0  0  0  0  0  0  0  0  0
    1.6141    1.7789   -0.2416 C   0  0  0  0  0  0  0  0  0  0  0  0
    2.3847    0.5987   -0.7221 C   0  0  0  0  0  0  0  0  0  0  0  0
    4.3652   -0.4783   -1.4268 C   0  0  0  0  0  0  0  0  0  0  0  0
    4.6236   -0.2965   -2.4968 H   0  0  0  0  0  0  0  0  0  0  0  0
    3.7409   -1.4011   -1.4071 H   0  0  0  0  0  0  0  0  0  0  0  0
    5.6677   -0.6911   -0.6414 C   0  0  0  0  0  0  0  0  0  0  0  0
    5.4128   -0.8776    0.4263 H   0  0  0  0  0  0  0  0  0  0  0  0
    6.1500   -1.6234   -1.0101 H   0  0  0  0  0  0  0  0  0  0  0  0
    6.6500    0.4791   -0.7345 C   0  0  0  0  0  0  0  0  0  0  0  0
    6.1184    1.4056   -0.4318 H   0  0  0  0  0  0  0  0  0  0  0  0
    6.9326    0.6288   -1.8006 H   0  0  0  0  0  0  0  0  0  0  0  0
    7.9071    0.2850    0.1130 C   0  0  0  0  0  0  0  0  0  0  0  0
    8.6013    1.1448    0.0220 H   0  0  0  0  0  0  0  0  0  0  0  0
    8.4650   -0.6269   -0.1880 H   0  0  0  0  0  0  0  0  0  0  0  0
    7.6545    0.1734    1.1886 H   0  0  0  0  0  0  0  0  0  0  0  0
  1 25  1  0  0  0  0
  2 16  1  0  0  0  0
  4 17  1  0  0  0  0
  5 25  2  0  0  0  0
  6  2  2  0  0  0  0
  6 15  1  0  0  0  0
  7  6  1  0  0  0  0
  8  7  1  0  0  0  0
  9  7  2  0  0  0  0
  9 11  1  0  0  0  0
 10  9  1  0  0  0  0
 11 13  2  0  0  0  0
 12 11  1  0  0  0  0
 13 15  1  0  0  0  0
 13 14  1  0  0  0  0
 15  3  2  0  0  0  0
 16  3  1  0  0  0  0
 17 16  1  6  0  0  0
 17 18  1  0  0  0  0
 18 19  1  0  0  0  0
 20 18  2  0  0  0  0
 20 21  1  0  0  0  0
 22 20  1  0  0  0  0
 23 22  1  0  0  0  0
 24  4  1  0  0  0  0
 24 22  2  0  0  0  0
 25 24  1  0  0  0  0
 26 28  1  0  0  0  0
 26  5  1  0  0  0  0
 26 29  1  0  0  0  0
 27 26  1  0  0  0  0
 29 30  1  0  0  0  0
 31 29  1  0  0  0  0
 32 29  1  0  0  0  0
 32 33  1  0  0  0  0
 32 35  1  0  0  0  0
 34 32  1  0  0  0  0
 35 38  1  0  0  0  0
 36 35  1  0  0  0  0
 37 35  1  0  0  0  0
M  CHG  1   1  -1
M  END
