2,6,7
q = -2.0, confidence = 0.81

 23 24  0  0  1  0  0  0  0  0999 V2000
    2.6784    1.1427    0.3571 S   0  0  0  0  0  0  0  0  0  0  0  0
    1.9918    0.1074   -0.6622 O   0  0  0  0  0  1  0  0  0  0  0  0
    1.4447    2.2092    0.7087 O   0  0  0  0  0  0  0  0  0  0  0  0
    3.7358    1.8350   -0.3866 O   0  0  0  0  0  1  0  0  0  0  0  0
    2.9745    0.4880    1.6453 O   0  0  0  0  0  1  0  0  0  0  0  0
   -1.9482   -0.5813   -0.0116 N   0  0  0  0  0  2  0  0  0  0  0  0
   -0.5117    1.5417   -0.4566 N   0  0  0  0  0  2  0  0  0  0  0  0
   -3.9309    0.7039    0.3306 N   0  0  0  0  0  0  0  0  0  0  0  0
   -2.2649    3.0247    0.2112 N   0  0  0  0  0  0  0  0  0  0  0  0
   -2.6458   -1.7351    0.0908 C   0  0  0  0  0  0  0  0  0  0  0  0
   -4.0232   -1.7002    0.3141 C   0  0  0  0  0  0  0  0  0  0  0  0
   -4.6251   -0.4357    0.4332 C   0  0  0  0  0  0  0  0  0  0  0  0
   -2.6221    0.6203    0.1075 C   0  0  0  0  0  0  0  0  0  0  0  0
   -1.7731    1.8293   -0.0342 C   0  0  0  0  0  0  0  0  0  0  0  0
   -1.3571    4.0507    0.0781 C   0  0  0  0  0  0  0  0  0  0  0  0
   -0.0360    3.8886   -0.2447 C   0  0  0  0  0  3  0  0  0  0  0  0
    0.5337    2.5290   -0.4407 C   0  0  1  0  0  0  0  0  0  0  0  0
   -2.0548   -2.6669    0.0094 H   0  0  0  0  0  0  0  0  0  0  0  0
   -4.5984   -2.6324    0.3992 H   0  0  0  0  0  0  0  0  0  0  0  0
   -5.7090   -0.3381    0.6204 H   0  0  0  0  0  0  0  0  0  0  0  0
   -1.7624    5.0640    0.2410 H   0  0  0  0  0  0  0  0  0  0  0  0
    0.6430    4.7481   -0.3372 H   0  0  0  0  0  0  0  0  0  0  0  0
    1.1767    2.4457   -1.3434 H   0  0  0  0  0  0  0  0  0  0  0  0
  1  3  1  0  0  0  0
  1  5  1  0  0  0  0
  2  1  1  0  0  0  0
  4  1  1  0  0  0  0
  6 10  1  0  0  0  0
  6 13  1  0  0  0  0
  7 17  1  0  0  0  0
  7 14  1  0  0  0  0
  8 12  2  0  0  0  0
 10 11  2  0  0  0  0
 11 19  1  0  0  0  0
 11 12  1  0  0  0  0
 12 20  1  0  0  0  0
 13  8  1  0  0  0  0
 14 13  2  0  0  0  0
 14  9  1  0  0  0  0
 15  9  2  0  0  0  0
 15 21  1  0  0  0  0
 16 15  1  0  0  0  0
 17 23  1  6  0  0  0
 17 16  1  0  0  0  0
 17  3  1  0  0  0  0
 18 10  1  0  0  0  0
 22 16  1  0  0  0  0
M  END
