3,4,5
q = -2.0, confidence = 0.98

 27 29  0  0  1  0  0  0  0  0999 V2000
    0.7087   -2.9484   -0.1391 S   0  0  0  0  0  0  0  0  0  0  0  0
    2.1830   -2.6741    0.5897 O   0  0  0  0  0  0  0  0  0  0  0  0
    0.6780   -1.9894   -1.3410 O   0  0  0  0  0  1  0  0  0  0  0  0
    1.7617   -0.3084    0.8932 N   0  0  0  0  0  2  0  0  0  0  0  0
    0.8582    1.3691   -1.0526 N   0  0  0  0  0  2  0  0  0  0  0  0
    1.1308    3.2438   -2.5320 C   0  0  0  0  0  0  0  0  0  0  0  0
    0.6729    3.9311   -3.2579 H   0  0  0  0  0  0  0  0  0  0  0  0
    4.8995    1.4738   -0.0023 C   0  0  0  0  0  0  0  0  0  0  0  0
    5.9683    1.4575    0.2667 H   0  0  0  0  0  0  0  0  0  0  0  0
    2.2151   -1.5005    1.5381 C   0  0  2  0  0  0  0  0  0  0  0  0
    1.4981   -1.7821    2.3366 H   0  0  0  0  0  0  0  0  0  0  0  0
    3.0550    2.4354   -1.2643 C   0  0  0  0  0  0  0  0  0  0  0  0
    3.6264   -1.4254    2.0300 C   0  0  0  0  0  0  0  0  0  0  0  0
    3.9544   -2.1834    2.7568 H   0  0  0  0  0  0  0  0  0  0  0  0
    4.0498    0.5033    0.5913 C   0  0  0  0  0  0  0  0  0  0  0  0
    4.4902   -0.4915    1.5443 C   0  0  0  0  0  0  0  0  0  0  0  0
    5.5383   -0.4686    1.8849 H   0  0  0  0  0  0  0  0  0  0  0  0
    4.4314    2.4306   -0.8964 C   0  0  0  0  0  3  0  0  0  0  0  0
    5.1098    3.1745   -1.3388 H   0  0  0  0  0  0  0  0  0  0  0  0
    2.4775    3.3395   -2.1978 C   0  0  0  0  0  0  0  0  0  0  0  0
    3.1153    4.1099   -2.6596 H   0  0  0  0  0  0  0  0  0  0  0  0
    2.6543    0.5054    0.2938 C   0  0  0  0  0  0  0  0  0  0  0  0
    0.3507    2.2228   -1.9407 C   0  0  0  0  0  0  0  0  0  0  0  0
   -0.7110    2.0883   -2.2082 H   0  0  0  0  0  0  0  0  0  0  0  0
    2.1684    1.4605   -0.6832 C   0  0  0  0  0  0  0  0  0  0  0  0
    0.6940   -4.3731   -0.4798 O   0  0  0  0  0  1  0  0  0  0  0  0
   -0.3353   -2.4466    0.8509 O   0  0  0  0  0  1  0  0  0  0  0  0
  1  2  1  0  0  0  0
  1 27  1  0  0  0  0
  2 10  1  0  0  0  0
  3  1  1  0  0  0  0
  4 10  1  0  0  0  0
  5 25  1  0  0  0  0
  6 20  1  0  0  0  0
  6 23  2  0  0  0  0
  7  6  1  0  0  0  0
  8  9  1  0  0  0  0
  8 15  2  0  0  0  0
 10 13  1  0  0  0  0
 10 11  1  1  0  0  0
 12 18  1  0  0  0  0
 12 25  1  0  0  0  0
 13 14  1  0  0  0  0
 15 16  1  0  0  0  0
 16 17  1  0  0  0  0
 16 13  2  0  0  0  0
 18  8  1  0  0  0  0
 19 18  1  0  0  0  0
 20 12  2  0  0  0  0
 21 20  1  0  0  0  0
 22 15  1  0  0  0  0
 22  4  1  0  0  0  0
 23  5  1  0  0  0  0
 24 23  1  0  0  0  0
 25 22  2  0  0  0  0
 26  1  1  0  0  0  0
M  END
