1,2,3
q = -1.0, confidence = 0.002

 37 39  0  0  1  0  0  0  0  0999 V2000
   -0.7603   -0.0581   -0.4544 O   0  5  0  0  0  0  0  0  0  0  0  0
    1.5352    1.3346   -0.4388 N   0  0  0  0  0  2  0  0  0  0  0  0
    3.1377   -0.6173    0.1028 N   0  0  0  0  0  2  0  0  0  0  0  0
    0.7393    2.3472   -0.2079 C   0  0  0  0  0  3  0  0  0  0  0  0
   -0.6637    2.2725    0.0710 C   0  0  0  0  0  0  0  0  0  0  0  0
   -1.3704    1.0214   -0.0648 C   0  0  0  0  0  0  0  0  0  0  0  0
   -2.7873    0.9936    0.1986 C   0  0  0  0  0  0  0  0  0  0  0  0
   -3.4183    2.1919    0.5624 C   0  0  0  0  0  0  0  0  0  0  0  0
   -2.7290    3.4213    0.6712 C   0  0  0  0  0  0  0  0  0  0  0  0
   -1.3637    3.4587    0.4249 C   0  0  0  0  0  0  0  0  0  0  0  0
   -3.5540   -0.2727    0.0922 C   0  0  0  0  0  0  0  0  0  0  0  0
   -3.0150   -1.5072    0.5282 C   0  0  0  0  0  0  0  0  0  0  0  0
   -3.7775   -2.6804    0.4552 C   0  0  0  0  0  0  0  0  0  0  0  0
   -5.0842   -2.6544   -0.0581 C   0  0  0  0  0  0  0  0  0  0  0  0
   -5.6277   -1.4385   -0.5008 C   0  0  0  0  0  0  0  0  0  0  0  0
   -4.8695   -0.2623   -0.4266 C   0  0  0  0  0  0  0  0  0  0  0  0
    2.9170    1.5977   -0.8009 C   0  0  0  0  0  0  0  0  0  0  0  0
    3.7950    0.5073   -0.2385 C   0  0  2  0  0  3  0  0  0  0  0  0
    3.8053   -1.6701    0.6156 C   0  0  0  0  0  0  0  0  0  0  0  0
    5.1918   -1.6396    0.7907 C   0  0  0  0  0  0  0  0  0  0  0  0
    5.8929   -0.4770    0.4317 C   0  0  0  0  0  0  0  0  0  0  0  0
    5.1860    0.6158   -0.0855 C   0  0  0  0  0  0  0  0  0  0  0  0
    1.1746    3.3711   -0.2322 H   0  0  0  0  0  0  0  0  0  0  0  0
   -4.4937    2.1611    0.7966 H   0  0  0  0  0  0  0  0  0  0  0  0
   -3.2719    4.3315    0.9632 H   0  0  0  0  0  0  0  0  0  0  0  0
   -0.8009    4.4020    0.5122 H   0  0  0  0  0  0  0  0  0  0  0  0
   -1.9936   -1.5492    0.9307 H   0  0  0  0  0  0  0  0  0  0  0  0
   -3.3399   -3.6285    0.8032 H   0  0  0  0  0  0  0  0  0  0  0  0
   -5.6754   -3.5810   -0.1193 H   0  0  0  0  0  0  0  0  0  0  0  0
   -6.6460   -1.4060   -0.9178 H   0  0  0  0  0  0  0  0  0  0  0  0
   -5.2936    0.6819   -0.8017 H   0  0  0  0  0  0  0  0  0  0  0  0
    3.0136    1.5807   -1.9129 H   0  0  0  0  0  0  0  0  0  0  0  0
    3.2647    2.6015   -0.4662 H   0  0  0  0  0  0  0  0  0  0  0  0
    3.1761   -2.5300    0.8923 H   0  0  0  0  0  0  0  0  0  0  0  0
    5.7098   -2.5134    1.2102 H   0  0  0  0  0  0  0  0  0  0  0  0
    6.9838   -0.4192    0.5637 H   0  0  0  0  0  0  0  0  0  0  0  0
    5.6995    1.5476   -0.3645 H   0  0  0  0  0  0  0  0  0  0  0  0
  1  6  1  0  0  0  0
  2  4  1  0  0  0  0
  3 19  1  0  0  0  0
  4  5  1  0  0  0  0
  5 10  1  0  0  0  0
  6  5  2  0  0  0  0
  6  7  1  0  0  0  0
  7  8  2  0  0  0  0
  8  9  1  0  0  0  0
  8 24  1  0  0  0  0
  9 25  1  0  0  0  0
 10 26  1  0  0  0  0
 10  9  2  0  0  0  0
 11  7  1  0  0  0  0
 11 12  1  0  0  0  0
 12 27  1  0  0  0  0
 13 12  2  0  0  0  0
 13 28  1  0  0  0  0
 14 13  1  0  0  0  0
 15 16  1  0  0  0  0
 15 14  2  0  0  0  0
 16 11  2  0  0  0  0
 17 33  1  0  0  0  0
 17  2  1  0  0  0  0
 18 17  1  6  0  0  0
 18 22  1  0  0  0  0
 18  3  1  0  0  0  0
 19 20  2  0  0  0  0
 19 34  1  0  0  0  0
 20 35  1  0  0  0  0
 21 36  1  0  0  0  0
 21 20  1  0  0  0  0
 22 21  2  0  0  0  0
 23  4  1  0  0  0  0
 29 14  1  0  0  0  0
 30 15  1  0  0  0  0
 31 16  1  0  0  0  0
 32 17  1  0  0  0  0
 37 22  1  0  0  0  0
M  CHG  1   1  -1
M  END
