2,7,8
q = -2.0, confidence = 0.956

 39 42  0  0  1  0  0  0  0  0999 V2000
    4.4093   -0.8079    0.3749 S   0  0  0  0  0  0  0  0  0  0  0  0
   -0.7932   -0.1874    1.7528 O   0  5  0  0  0  0  0  0  0  0  0  0
   -1.5592   -2.2613    2.2458 O   0  0  0  0  0  0  0  0  0  0  0  0
    4.5011   -0.6927   -1.2606 O   0  0  0  0  0  0  0  0  0  0  0  0
    4.1749    0.5087    1.0023 O   0  0  0  0  0  1  0  0  0  0  0  0
    5.6021   -1.6013    0.7126 O   0  0  0  0  0  1  0  0  0  0  0  0
    0.0085    2.1193    0.3938 N   0  0  0  0  0  2  0  0  0  0  0  0
    0.7732    0.3416   -1.3170 N   0  0  0  0  0  2  0  0  0  0  0  0
   -0.4178    2.8794    1.4123 C   0  0  0  0  0  0  0  0  0  0  0  0
   -1.3882    2.6196    1.8568 H   0  0  0  0  0  0  0  0  0  0  0  0
    0.3658    3.9480    1.8994 C   0  0  0  0  0  0  0  0  0  0  0  0
   -0.0223    4.5520    2.7315 H   0  0  0  0  0  0  0  0  0  0  0  0
    2.1138    3.3799    0.3024 C   0  0  0  0  0  0  0  0  0  0  0  0
    3.4029    3.4715   -0.3053 C   0  0  0  0  0  3  0  0  0  0  0  0
    4.0730    4.2947   -0.0193 H   0  0  0  0  0  0  0  0  0  0  0  0
    3.8302    2.4755   -1.1722 C   0  0  0  0  0  0  0  0  0  0  0  0
    4.8571    2.5063   -1.5687 H   0  0  0  0  0  0  0  0  0  0  0  0
    3.0214    1.3538   -1.5056 C   0  0  0  0  0  0  0  0  0  0  0  0
    3.5576    0.1410   -2.1791 C   0  0  2  0  0  0  0  0  0  0  0  0
    4.3170    0.3864   -2.9470 H   0  0  0  0  0  0  0  0  0  0  0  0
    2.4598   -0.7069   -2.7005 C   0  0  0  0  0  0  0  0  0  0  0  0
    2.6844   -1.4564   -3.4722 H   0  0  0  0  0  0  0  0  0  0  0  0
    1.1765   -0.6029   -2.2234 C   0  0  0  0  0  0  0  0  0  0  0  0
    0.3915   -1.2629   -2.6202 H   0  0  0  0  0  0  0  0  0  0  0  0
    1.2620    2.3118   -0.1138 C   0  0  0  0  0  0  0  0  0  0  0  0
    1.6999    1.3064   -1.0167 C   0  0  0  0  0  0  0  0  0  0  0  0
   -0.6586   -1.4697    1.8895 C   0  0  0  0  0  0  0  0  0  0  0  0
    0.6863   -2.0587    1.4933 C   0  0  0  0  0  0  0  0  0  0  0  0
    1.7903   -1.2401    1.1897 C   0  0  0  0  0  0  0  0  0  0  0  0
    1.7300   -0.1554    1.3435 H   0  0  0  0  0  0  0  0  0  0  0  0
    2.9648   -1.8295    0.7047 C   0  0  0  0  0  0  0  0  0  0  0  0
    3.0815   -3.2182    0.5311 C   0  0  0  0  0  0  0  0  0  0  0  0
    4.0288   -3.6403    0.1662 H   0  0  0  0  0  0  0  0  0  0  0  0
    1.9904   -4.0325    0.8686 C   0  0  0  0  0  0  0  0  0  0  0  0
    2.0714   -5.1251    0.7610 H   0  0  0  0  0  0  0  0  0  0  0  0
    0.8064   -3.4564    1.3527 C   0  0  0  0  0  0  0  0  0  0  0  0
   -0.0678   -4.0659    1.6265 H   0  0  0  0  0  0  0  0  0  0  0  0
    1.6078    4.2213    1.3297 C   0  0  0  0  0  0  0  0  0  0  0  0
    2.2200    5.0593    1.6965 H   0  0  0  0  0  0  0  0  0  0  0  0
  1 31  1  0  0  0  0
  1  6  1  0  0  0  0
  1  5  1  0  0  0  0
  2 27  1  0  0  0  0
  4  1  1  0  0  0  0
  7  9  1  0  0  0  0
  8 26  1  0  0  0  0
  9 10  1  0  0  0  0
  9 11  2  0  0  0  0
 11 12  1  0  0  0  0
 13 38  2  0  0  0  0
 14 15  1  0  0  0  0
 14 13  1  0  0  0  0
 16 14  1  0  0  0  0
 17 16  1  0  0  0  0
 18 16  2  0  0  0  0
 18 26  1  0  0  0  0
 19 20  1  6  0  0  0
 19 18  1  0  0  0  0
 19  4  1  0  0  0  0
 21 23  2  0  0  0  0
 21 19  1  0  0  0  0
 22 21  1  0  0  0  0
 23  8  1  0  0  0  0
 24 23  1  0  0  0  0
 25 13  1  0  0  0  0
 25  7  1  0  0  0  0
 26 25  2  0  0  0  0
 27  3  2  0  0  0  0
 28 27  1  0  0  0  0
 29 30  1  0  0  0  0
 29 28  2  0  0  0  0
 31 29  1  0  0  0  0
 32 31  2  0  0  0  0
 32 34  1  0  0  0  0
 33 32  1  0  0  0  0
 34 36  2  0  0  0  0
 35 34  1  0  0  0  0
 36 28  1  0  0  0  0
 36 37  1  0  0  0  0
 38 39  1  0  0  0  0
 38 11  1  0  0  0  0
M  CHG  1   2  -1
M  END
