1,2,3
q = -1.0, confidence = 0.0

 48 50  0  0  0  0  0  0  0  0999 V2000
   -1.7230    0.4058    1.2785 O   0  5  0  0  0  0  0  0  0  0  0  0
    1.3274    1.8152   -1.0939 N   0  0  0  0  0  0  0  0  0  0  0  0
   -0.6899   -0.2434   -1.4126 N   0  0  0  0  0  0  0  0  0  0  0  0
    3.1697   -2.6708   -1.0415 N   0  0  0  0  0  0  0  0  0  0  0  0
    2.5974    1.9019   -0.3335 C   0  0  0  0  0  0  0  0  0  0  0  0
    0.9683    3.1514   -1.6233 C   0  0  0  0  0  0  0  0  0  0  0  0
    1.4457    0.8005   -2.1798 C   0  0  0  0  0  0  0  0  0  0  0  0
    0.0822    0.2588   -2.5854 C   0  0  0  0  0  0  0  0  0  0  0  0
   -2.1613   -0.0746   -1.6536 C   0  0  0  0  0  0  0  0  0  0  0  0
   -3.0364   -0.5820   -0.5416 C   0  0  0  0  0  0  0  0  0  0  0  0
   -4.1701   -1.3541   -0.8708 C   0  0  0  0  0  0  0  0  0  0  0  0
   -5.0724   -1.8023    0.0990 C   0  0  0  0  0  0  0  0  0  0  0  0
   -4.8266   -1.4746    1.4467 C   0  0  0  0  0  0  0  0  0  0  0  0
   -3.7077   -0.7244    1.8049 C   0  0  0  0  0  0  0  0  0  0  0  0
   -2.7722   -0.2589    0.8318 C   0  0  0  0  0  0  0  0  0  0  0  0
   -0.4043   -1.6901   -1.0964 C   0  0  0  0  0  0  0  0  0  0  0  0
    1.9272   -2.6204   -1.6435 C   0  0  0  0  0  0  0  0  0  0  0  0
    1.0178   -2.0101   -0.7880 C   0  0  0  0  0  0  0  0  0  0  0  0
    1.7410   -1.6936    0.4259 C   0  0  0  0  0  0  0  0  0  0  0  0
    1.3769   -1.0997    1.6580 C   0  0  0  0  0  0  0  0  0  0  0  0
    2.3696   -0.9025    2.6217 C   0  0  0  0  0  0  0  0  0  0  0  0
    3.7114   -1.2964    2.3907 C   0  0  0  0  0  0  0  0  0  0  0  0
    4.0951   -1.9133    1.1949 C   0  0  0  0  0  0  0  0  0  0  0  0
    3.0970   -2.1074    0.2225 C   0  0  0  0  0  0  0  0  0  0  0  0
    2.8325    0.9110    0.0970 H   0  0  0  0  0  0  0  0  0  0  0  0
    2.4522    2.6189    0.4949 H   0  0  0  0  0  0  0  0  0  0  0  0
    3.4228    2.2326   -1.0040 H   0  0  0  0  0  0  0  0  0  0  0  0
    0.7967    3.8243   -0.7627 H   0  0  0  0  0  0  0  0  0  0  0  0
    0.0330    3.0896   -2.2098 H   0  0  0  0  0  0  0  0  0  0  0  0
    1.7869    3.5425   -2.2703 H   0  0  0  0  0  0  0  0  0  0  0  0
    2.0747   -0.0208   -1.7956 H   0  0  0  0  0  0  0  0  0  0  0  0
    1.9633    1.2416   -3.0627 H   0  0  0  0  0  0  0  0  0  0  0  0
    0.2026   -0.5471   -3.3449 H   0  0  0  0  0  0  0  0  0  0  0  0
   -0.5238    1.0593   -3.0551 H   0  0  0  0  0  0  0  0  0  0  0  0
   -2.4299   -0.6043   -2.5975 H   0  0  0  0  0  0  0  0  0  0  0  0
   -2.3104    1.0145   -1.8246 H   0  0  0  0  0  0  0  0  0  0  0  0
   -4.3436   -1.6012   -1.9317 H   0  0  0  0  0  0  0  0  0  0  0  0
   -5.9503   -2.3992   -0.1873 H   0  0  0  0  0  0  0  0  0  0  0  0
   -5.5201   -1.8145    2.2322 H   0  0  0  0  0  0  0  0  0  0  0  0
   -3.5015   -0.4662    2.8538 H   0  0  0  0  0  0  0  0  0  0  0  0
   -0.7542   -2.2917   -1.9668 H   0  0  0  0  0  0  0  0  0  0  0  0
   -1.0641   -1.9425   -0.2439 H   0  0  0  0  0  0  0  0  0  0  0  0
    3.9991   -3.1053   -1.4415 H   0  0  0  0  0  0  0  0  0  0  0  0
    1.7736   -3.0235   -2.6517 H   0  0  0  0  0  0  0  0  0  0  0  0
    0.3371   -0.7955    1.8532 H   0  0  0  0  0  0  0  0  0  0  0  0
    2.1022   -0.4252    3.5756 H   0  0  0  0  0  0  0  0  0  0  0  0
    4.4672   -1.1214    3.1713 H   0  0  0  0  0  0  0  0  0  0  0  0
    5.1343   -2.2317    1.0230 H   0  0  0  0  0  0  0  0  0  0  0  0
  2  5  1  0  0  0  0
  3 16  1  0  0  0  0
  4 24  1  0  0  0  0
  5 25  1  0  0  0  0
  5 26  1  0  0  0  0
  6  2  1  0  0  0  0
  6 28  1  0  0  0  0
  7 31  1  0  0  0  0
  7  2  1  0  0  0  0
  8  7  1  0  0  0  0
  8  3  1  0  0  0  0
  9  3  1  0  0  0  0
  9 10  1  0  0  0  0
 10 15  1  0  0  0  0
 11 10  2  0  0  0  0
 11 12  1  0  0  0  0
 12 13  2  0  0  0  0
 13 14  1  0  0  0  0
 13 39  1  0  0  0  0
 14 40  1  0  0  0  0
 15  1  1  0  0  0  0
 15 14  2  0  0  0  0
 16 18  1  0  0  0  0
 16 42  1  0  0  0  0
 17  4  1  0  0  0  0
 17 18  2  0  0  0  0
 18 19  1  0  0  0  0
 19 20  1  0  0  0  0
 20 45  1  0  0  0  0
 20 21  2  0  0  0  0
 21 46  1  0  0  0  0
 22 21  1  0  0  0  0
 22 47  1  0  0  0  0
 23 22  2  0  0  0  0
 24 19  2  0  0  0  0
 24 23  1  0  0  0  0
 27  5  1  0  0  0  0
 29  6  1  0  0  0  0
 30  6  1  0  0  0  0
 32  7  1  0  0  0  0
 33  8  1  0  0  0  0
 34  8  1  0  0  0  0
 35  9  1  0  0  0  0
 36  9  1  0  0  0  0
 37 11  1  0  0  0  0
 38 12  1  0  0  0  0
 41 16  1  0  0  0  0
 43  4  1  0  0  0  0
 44 17  1  0  0  0  0
 48 23  1  0  0  0  0
M  CHG  1   1  -1
M  END
