2,4,6
q = -2.0, confidence = 0.812

 31 31  0  0  0  0  0  0  0  0999 V2000
    4.0411    1.3836    0.1953 S   0  0  0  0  0  0  0  0  0  0  0  0
   -1.7974   -0.6024    0.0163 O   0  5  0  0  0  0  0  0  0  0  0  0
   -4.3501   -1.1649   -0.0785 O   0  0  0  0  0  0  0  0  0  0  0  0
    0.2150    1.2773    0.0951 N   0  0  0  0  0  2  0  0  0  0  0  0
    1.4697    1.7754    0.2769 N   0  0  0  0  0  0  0  0  0  0  0  0
    2.0170   -0.4326   -0.2802 N   0  0  0  0  0  2  0  0  0  0  0  0
    2.7525   -1.1322   -0.3918 H   0  0  0  0  0  0  0  0  0  0  0  0
   -2.6329    0.4339    0.0174 C   0  0  0  0  0  0  0  0  0  0  0  0
   -4.0336    0.1540   -0.0228 C   0  0  0  0  0  0  0  0  0  0  0  0
   -4.9560    1.2116    0.0057 C   0  0  0  0  0  0  0  0  0  0  0  0
   -6.0338    1.0039   -0.0306 H   0  0  0  0  0  0  0  0  0  0  0  0
   -4.5083    2.5480    0.0832 C   0  0  0  0  0  0  0  0  0  0  0  0
   -5.2459    3.3633    0.1022 H   0  0  0  0  0  0  0  0  0  0  0  0
   -3.1484    2.8323    0.1377 C   0  0  0  0  0  0  0  0  0  0  0  0
   -2.7943    3.8721    0.2025 H   0  0  0  0  0  0  0  0  0  0  0  0
   -2.1864    1.7835    0.1019 C   0  0  0  0  0  0  0  0  0  0  0  0
   -0.7871    2.1233    0.1975 C   0  0  0  0  0  3  0  0  0  0  0  0
   -0.5185    3.1830    0.3682 H   0  0  0  0  0  0  0  0  0  0  0  0
    2.3678    0.8278    0.0454 C   0  0  0  0  0  0  0  0  0  0  0  0
   -5.7174   -1.5192   -0.1466 C   0  0  0  0  0  0  0  0  0  0  0  0
   -6.2800   -1.1796    0.7526 H   0  0  0  0  0  0  0  0  0  0  0  0
   -5.7516   -2.6230   -0.1974 H   0  0  0  0  0  0  0  0  0  0  0  0
   -6.2089   -1.0997   -1.0532 H   0  0  0  0  0  0  0  0  0  0  0  0
    4.9867   -0.1931    0.0349 C   0  0  0  0  0  0  0  0  0  0  0  0
    4.5064   -0.9414    0.7018 H   0  0  0  0  0  0  0  0  0  0  0  0
    4.9421   -0.5512   -1.0143 H   0  0  0  0  0  0  0  0  0  0  0  0
    6.4021    0.0499    0.4654 C   0  0  0  0  0  0  0  0  0  0  0  0
    6.5456    0.2999    1.5315 H   0  0  0  0  0  0  0  0  0  0  0  0
    7.4624   -0.0073   -0.3583 C   0  0  0  0  0  0  0  0  0  0  0  0
    7.3471   -0.2407   -1.4299 H   0  0  0  0  0  0  0  0  0  0  0  0
    8.4838    0.1717    0.0107 H   0  0  0  0  0  0  0  0  0  0  0  0
  2  8  1  0  0  0  0
  3  9  1  0  0  0  0
  4 17  1  0  0  0  0
  4  5  1  0  0  0  0
  6 19  1  0  0  0  0
  7  6  1  0  0  0  0
  8 16  1  0  0  0  0
  9 10  1  0  0  0  0
  9  8  2  0  0  0  0
 10 12  2  0  0  0  0
 11 10  1  0  0  0  0
 12 13  1  0  0  0  0
 12 14  1  0  0  0  0
 14 15  1  0  0  0  0
 16 14  2  0  0  0  0
 16 17  1  0  0  0  0
 17 18  1  0  0  0  0
 19  1  1  0  0  0  0
 19  5  2  0  0  0  0
 20  3  1  0  0  0  0
 20 21  1  0  0  0  0
 22 20  1  0  0  0  0
 23 20  1  0  0  0  0
 24  1  1  0  0  0  0
 24 27  1  0  0  0  0
 24 25  1  0  0  0  0
 26 24  1  0  0  0  0
 27 28  1  0  0  0  0
 29 31  1  0  0  0  0
 29 27  2  0  0  0  0
 30 29  1  0  0  0  0
M  CHG  1   2  -1
M  END
