1,2,5
q = -2.0, confidence = 0.946

 30 31  0  0  1  0  0  0  0  0999 V2000
    2.0027   -0.1089    0.8882 N   0  0  0  0  0  2  0  0  0  0  0  0
    0.4558   -1.9165   -0.5215 N   0  0  0  0  0  2  0  0  0  0  0  0
    0.2976   -3.8359   -1.5816 N   0  0  0  0  0  0  0  0  0  0  0  0
    0.1080   -4.5085   -2.3240 H   0  0  0  0  0  0  0  0  0  0  0  0
   -0.0284    1.6748    0.4951 O   0  0  0  0  0  1  0  0  0  0  0  0
    4.0414   -2.9579   -0.0342 O   0  5  0  0  0  0  0  0  0  0  0  0
    3.8661   -0.8891   -0.9773 O   0  0  0  0  0  0  0  0  0  0  0  0
    0.8810    2.6120    0.5377 C   0  0  1  0  0  3  0  0  0  0  0  0
    0.4852    3.9766    0.4192 C   0  0  0  0  0  0  0  0  0  0  0  0
   -0.5866    4.1817    0.2809 H   0  0  0  0  0  0  0  0  0  0  0  0
    1.4257    5.0045    0.4658 C   0  0  0  0  0  0  0  0  0  0  0  0
    1.0891    6.0477    0.3569 H   0  0  0  0  0  0  0  0  0  0  0  0
    2.8008    4.7269    0.6439 C   0  0  0  0  0  0  0  0  0  0  0  0
    3.5358    5.5441    0.6727 H   0  0  0  0  0  0  0  0  0  0  0  0
    3.2088    3.4029    0.7896 C   0  0  0  0  0  0  0  0  0  0  0  0
    4.2726    3.1631    0.9477 H   0  0  0  0  0  0  0  0  0  0  0  0
    2.2775    2.3321    0.7409 C   0  0  0  0  0  0  0  0  0  0  0  0
    2.7175    0.9872    0.9843 C   0  0  0  0  0  0  0  0  0  0  0  0
    3.7698    0.8687    1.3053 H   0  0  0  0  0  0  0  0  0  0  0  0
    3.6437   -1.7841   -0.1192 C   0  0  0  0  0  0  0  0  0  0  0  0
    2.7095   -1.3486    1.1390 C   0  0  2  0  0  0  0  0  0  0  0  0
    3.4196   -1.1937    1.9797 H   0  0  0  0  0  0  0  0  0  0  0  0
    1.7699   -2.5020    1.5028 C   0  0  0  0  0  0  0  0  0  0  0  0
    2.3934   -3.3509    1.8330 H   0  0  0  0  0  0  0  0  0  0  0  0
    1.0863   -2.2081    2.3291 H   0  0  0  0  0  0  0  0  0  0  0  0
    1.0219   -2.8961    0.2783 C   0  0  0  0  0  0  0  0  0  0  0  0
    0.9323   -4.1047   -0.3846 C   0  0  0  0  0  0  0  0  0  0  0  0
    1.3195   -5.0935   -0.1268 H   0  0  0  0  0  0  0  0  0  0  0  0
    0.0252   -2.5056   -1.6402 C   0  0  0  0  0  3  0  0  0  0  0  0
   -0.4581   -2.0154   -2.4892 H   0  0  0  0  0  0  0  0  0  0  0  0
  1 18  1  0  0  0  0
  1 21  1  0  0  0  0
  2 26  1  0  0  0  0
  3 27  1  0  0  0  0
  4  3  1  0  0  0  0
  7 20  2  0  0  0  0
  8  5  1  1  0  0  0
  8 17  1  0  0  0  0
  9 11  2  0  0  0  0
  9  8  1  0  0  0  0
 10  9  1  0  0  0  0
 11 13  1  0  0  0  0
 12 11  1  0  0  0  0
 13 14  1  0  0  0  0
 13 15  2  0  0  0  0
 15 16  1  0  0  0  0
 17 15  1  0  0  0  0
 17 18  2  0  0  0  0
 18 19  1  0  0  0  0
 20  6  1  0  0  0  0
 20 21  1  0  0  0  0
 21 23  1  0  0  0  0
 21 22  1  1  0  0  0
 23 24  1  0  0  0  0
 23 25  1  0  0  0  0
 26 23  1  0  0  0  0
 27 28  1  0  0  0  0
 27 26  2  0  0  0  0
 29  3  1  0  0  0  0
 29  2  1  0  0  0  0
 30 29  1  0  0  0  0
M  CHG  1   6  -1
M  END
