1,3,4
q = -2.0, confidence = 0.98

 26 26  0  0  0  0  0  0  0  0999 V2000
    1.4604   -0.5529   -1.1262 O   0  5  0  0  0  0  0  0  0  0  0  0
    2.8139    2.9599    0.7291 O   0  0  0  0  0  0  0  0  0  0  0  0
    0.9242    1.6723    0.3646 N   0  0  0  0  0  2  0  0  0  0  0  0
   -0.7357    0.7890   -1.6398 N   0  0  0  0  0  0  0  0  0  0  0  0
    0.1064    0.7312   -2.2351 H   0  0  0  0  0  0  0  0  0  0  0  0
   -1.4099    0.0882   -1.9839 H   0  0  0  0  0  0  0  0  0  0  0  0
    2.7062   -0.3921   -0.7255 C   0  0  0  0  0  0  0  0  0  0  0  0
    3.6851   -1.3431   -1.1521 C   0  0  0  0  0  0  0  0  0  0  0  0
    3.3432   -2.1547   -1.8133 H   0  0  0  0  0  0  0  0  0  0  0  0
    5.0177   -1.2564   -0.7400 C   0  0  0  0  0  0  0  0  0  0  0  0
    5.7403   -2.0173   -1.0802 H   0  0  0  0  0  0  0  0  0  0  0  0
    5.4376   -0.2097    0.1049 C   0  0  0  0  0  0  0  0  0  0  0  0
    6.4872   -0.1382    0.4305 H   0  0  0  0  0  0  0  0  0  0  0  0
    4.5001    0.7538    0.4977 C   0  0  0  0  0  0  0  0  0  0  0  0
    4.7857    1.6326    1.0974 H   0  0  0  0  0  0  0  0  0  0  0  0
    3.1470    0.6843    0.1134 C   0  0  0  0  0  0  0  0  0  0  0  0
    2.2693    1.8672    0.4376 C   0  0  0  0  0  0  0  0  0  0  0  0
    0.1053    2.8704    0.3733 C   0  0  0  0  0  0  0  0  0  0  0  0
    0.7223    3.7124    0.7505 H   0  0  0  0  0  0  0  0  0  0  0  0
   -0.7667    2.7212    1.0433 H   0  0  0  0  0  0  0  0  0  0  0  0
   -0.3889    3.1950   -1.0462 C   0  0  0  0  0  0  0  0  0  0  0  0
   -0.9326    4.1658   -1.0493 H   0  0  0  0  0  0  0  0  0  0  0  0
    0.4973    3.3239   -1.7075 H   0  0  0  0  0  0  0  0  0  0  0  0
   -1.3281    2.1391   -1.6274 C   0  0  0  0  0  0  0  0  0  0  0  0
   -2.2572    2.0838   -1.0247 H   0  0  0  0  0  0  0  0  0  0  0  0
   -1.6312    2.4244   -2.6616 H   0  0  0  0  0  0  0  0  0  0  0  0
  1  7  1  0  0  0  0
  3 18  1  0  0  0  0
  3 17  1  0  0  0  0
  4 24  1  0  0  0  0
  5  4  1  0  0  0  0
  6  4  1  0  0  0  0
  7 16  1  0  0  0  0
  8 10  1  0  0  0  0
  8  7  2  0  0  0  0
  9  8  1  0  0  0  0
 10 12  2  0  0  0  0
 11 10  1  0  0  0  0
 12 13  1  0  0  0  0
 12 14  1  0  0  0  0
 14 15  1  0  0  0  0
 16 17  1  0  0  0  0
 16 14  2  0  0  0  0
 17  2  2  0  0  0  0
 18 19  1  0  0  0  0
 18 20  1  0  0  0  0
 21 18  1  0  0  0  0
 22 21  1  0  0  0  0
 23 21  1  0  0  0  0
 24 21  1  0  0  0  0
 24 25  1  0  0  0  0
 26 24  1  0  0  0  0
M  CHG  1   1  -1
M  END
