1,2,3
q = -2.0, confidence = 0.824

 36 36  0  0  1  0  0  0  0  0999 V2000
    0.1507    0.0212   -0.4378 O   0  0  0  0  0  1  0  0  0  0  0  0
   -1.5631    2.1654   -0.0922 N   0  0  0  0  0  2  0  0  0  0  0  0
   -3.4808    0.5496   -0.2801 N   0  0  0  0  0  2  0  0  0  0  0  0
   -4.2274   -0.1450   -0.3529 H   0  0  0  0  0  0  0  0  0  0  0  0
    4.8658    0.8280   -0.4189 N   0  0  0  0  0  0  0  0  0  0  0  0
   -3.0365    5.3260    0.3851 N   0  0  0  0  0  0  0  0  0  0  0  0
   -6.4059    2.4159    0.0560 N   0  0  0  0  0  0  0  0  0  0  0  0
    1.1212    0.9020   -0.3232 C   0  0  2  0  0  3  0  0  0  0  0  0
    2.4551    0.4387   -0.4105 C   0  0  0  0  0  0  0  0  0  0  0  0
    2.5743   -0.6393   -0.5719 H   0  0  0  0  0  0  0  0  0  0  0  0
    3.5694    1.3005   -0.2984 C   0  0  0  0  0  0  0  0  0  0  0  0
    3.3101    2.6962   -0.0718 C   0  0  0  0  0  0  0  0  0  0  0  0
    4.1354    3.4095    0.0362 H   0  0  0  0  0  0  0  0  0  0  0  0
    2.0114    3.1624    0.0113 C   0  0  0  0  0  0  0  0  0  0  0  0
    1.8367    4.2366    0.1805 H   0  0  0  0  0  0  0  0  0  0  0  0
    0.8774    2.3076   -0.1086 C   0  0  0  0  0  0  0  0  0  0  0  0
   -0.4297    2.8512   -0.0085 C   0  0  0  0  0  0  0  0  0  0  0  0
   -0.5182    3.9421    0.1559 H   0  0  0  0  0  0  0  0  0  0  0  0
    5.1220   -0.5951   -0.6028 C   0  0  0  0  0  0  0  0  0  0  0  0
    6.1320   -0.6926   -1.0514 H   0  0  0  0  0  0  0  0  0  0  0  0
    4.4149   -0.9890   -1.3642 H   0  0  0  0  0  0  0  0  0  0  0  0
    5.0395   -1.4409    0.6742 C   0  0  0  0  0  0  0  0  0  0  0  0
    5.2005   -2.5132    0.4404 H   0  0  0  0  0  0  0  0  0  0  0  0
    4.0477   -1.3394    1.1577 H   0  0  0  0  0  0  0  0  0  0  0  0
    5.8071   -1.1350    1.4121 H   0  0  0  0  0  0  0  0  0  0  0  0
    6.0128    1.7066   -0.2157 C   0  0  0  0  0  0  0  0  0  0  0  0
    5.8352    2.6639   -0.7497 H   0  0  0  0  0  0  0  0  0  0  0  0
    6.8779    1.2372   -0.7278 H   0  0  0  0  0  0  0  0  0  0  0  0
    6.3656    1.9820    1.2506 C   0  0  0  0  0  0  0  0  0  0  0  0
    7.2241    2.6809    1.3191 H   0  0  0  0  0  0  0  0  0  0  0  0
    6.6416    1.0500    1.7823 H   0  0  0  0  0  0  0  0  0  0  0  0
    5.5098    2.4364    1.7883 H   0  0  0  0  0  0  0  0  0  0  0  0
   -2.8274    2.7682    0.0190 C   0  0  0  0  0  0  0  0  0  0  0  0
   -3.8717    1.8329   -0.0881 C   0  0  0  0  0  0  0  0  0  0  0  0
   -2.9768    4.1600    0.2193 C   0  0  0  0  0  0  0  0  0  0  0  0
   -5.2550    2.1841   -0.0058 C   0  0  0  0  0  0  0  0  0  0  0  0
  2 17  1  0  0  0  0
  2 33  1  0  0  0  0
  3 34  1  0  0  0  0
  4  3  1  0  0  0  0
  5 11  1  0  0  0  0
  5 26  1  0  0  0  0
  8  1  1  1  0  0  0
  8 16  1  0  0  0  0
  9  8  1  0  0  0  0
  9 11  2  0  0  0  0
 10  9  1  0  0  0  0
 11 12  1  0  0  0  0
 12 14  2  0  0  0  0
 12 13  1  0  0  0  0
 14 15  1  0  0  0  0
 16 17  2  0  0  0  0
 16 14  1  0  0  0  0
 17 18  1  0  0  0  0
 19  5  1  0  0  0  0
 19 22  1  0  0  0  0
 20 19  1  0  0  0  0
 21 19  1  0  0  0  0
 22 24  1  0  0  0  0
 22 25  1  0  0  0  0
 23 22  1  0  0  0  0
 26 29  1  0  0  0  0
 27 26  1  0  0  0  0
 28 26  1  0  0  0  0
 29 30  1  0  0  0  0
 29 31  1  0  0  0  0
 29 32  1  0  0  0  0
 33 35  1  0  0  0  0
 34 36  1  0  0  0  0
 34 33  2  0  0  0  0
 35  6  3  0  0  0  0
 36  7  3  0  0  0  0
M  END
