1,4,5
q = -1.0, confidence = 0.02

 33 33  0  0  0  0  0  0  0  0999 V2000
   -0.9439   -0.5531    1.0051 O   0  5  0  0  0  0  0  0  0  0  0  0
    1.3437   -1.8274    1.2699 O   0  0  0  0  0  0  0  0  0  0  0  0
    1.5329   -1.1718    2.0004 H   0  0  0  0  0  0  0  0  0  0  0  0
    0.0898    1.3185   -0.7259 N   0  0  0  0  0  2  0  0  0  0  0  0
    2.5388   -0.2963   -0.6708 N   0  0  0  0  0  0  0  0  0  0  0  0
    2.2585   -0.8407   -1.5084 H   0  0  0  0  0  0  0  0  0  0  0  0
   -2.1115   -0.2136    0.5427 C   0  0  0  0  0  0  0  0  0  0  0  0
   -3.2797   -0.8330    1.0816 C   0  0  0  0  0  0  0  0  0  0  0  0
   -3.1341   -1.5929    1.8620 H   0  0  0  0  0  0  0  0  0  0  0  0
   -4.5442   -0.5015    0.6109 C   0  0  0  0  0  0  0  0  0  0  0  0
   -5.4237   -1.0121    1.0338 H   0  0  0  0  0  0  0  0  0  0  0  0
   -4.7236    0.4718   -0.4048 C   0  0  0  0  0  0  0  0  0  0  0  0
   -5.7317    0.7207   -0.7653 H   0  0  0  0  0  0  0  0  0  0  0  0
   -3.6071    1.1085   -0.9284 C   0  0  0  0  0  0  0  0  0  0  0  0
   -3.7203    1.8825   -1.7046 H   0  0  0  0  0  0  0  0  0  0  0  0
   -2.2952    0.7859   -0.4798 C   0  0  0  0  0  0  0  0  0  0  0  0
   -1.1820    1.5423   -0.9565 C   0  0  0  0  0  3  0  0  0  0  0  0
   -1.4247    2.4466   -1.5501 H   0  0  0  0  0  0  0  0  0  0  0  0
    1.0471    2.3485   -1.1159 C   0  0  0  0  0  0  0  0  0  0  0  0
    1.4080    2.8569   -0.1937 H   0  0  0  0  0  0  0  0  0  0  0  0
    0.5159    3.1174   -1.7167 H   0  0  0  0  0  0  0  0  0  0  0  0
    2.2458    1.8230   -1.9025 C   0  0  0  0  0  0  0  0  0  0  0  0
    1.8949    1.2574   -2.7927 H   0  0  0  0  0  0  0  0  0  0  0  0
    2.8192    2.6937   -2.2811 H   0  0  0  0  0  0  0  0  0  0  0  0
    3.1791    0.9655   -1.0598 C   0  0  0  0  0  0  0  0  0  0  0  0
    4.1267    0.7556   -1.6073 H   0  0  0  0  0  0  0  0  0  0  0  0
    3.4425    1.5003   -0.1233 H   0  0  0  0  0  0  0  0  0  0  0  0
    3.3904   -1.1264    0.2043 C   0  0  0  0  0  0  0  0  0  0  0  0
    3.7046   -0.4871    1.0550 H   0  0  0  0  0  0  0  0  0  0  0  0
    4.3075   -1.4701   -0.3260 H   0  0  0  0  0  0  0  0  0  0  0  0
    2.5728   -2.3032    0.7132 C   0  0  0  0  0  0  0  0  0  0  0  0
    2.2837   -2.9781   -0.1172 H   0  0  0  0  0  0  0  0  0  0  0  0
    3.1414   -2.8931    1.4632 H   0  0  0  0  0  0  0  0  0  0  0  0
  2  3  1  0  0  0  0
  5 28  1  0  0  0  0
  6  5  1  0  0  0  0
  7  1  1  0  0  0  0
  7  8  1  0  0  0  0
  8  9  1  0  0  0  0
 10 11  1  0  0  0  0
 10  8  2  0  0  0  0
 12 10  1  0  0  0  0
 13 12  1  0  0  0  0
 14 16  1  0  0  0  0
 14 12  2  0  0  0  0
 15 14  1  0  0  0  0
 16  7  2  0  0  0  0
 17  4  1  0  0  0  0
 17 16  1  0  0  0  0
 18 17  1  0  0  0  0
 19  4  1  0  0  0  0
 19 20  1  0  0  0  0
 21 19  1  0  0  0  0
 22 19  1  0  0  0  0
 22 25  1  0  0  0  0
 23 22  1  0  0  0  0
 24 22  1  0  0  0  0
 25  5  1  0  0  0  0
 25 27  1  0  0  0  0
 26 25  1  0  0  0  0
 28 31  1  0  0  0  0
 28 29  1  0  0  0  0
 30 28  1  0  0  0  0
 31  2  1  0  0  0  0
 31 33  1  0  0  0  0
 32 31  1  0  0  0  0
M  CHG  1   1  -1
M  END
