1,2,3
q = -1.0, confidence = 0.022

 31 32  0  0  1  0  0  0  0  0999 V2000
   -1.2050   -0.6902    0.6291 O   0  5  0  0  0  0  0  0  0  0  0  0
    0.9474    1.9668   -1.0441 N   0  0  0  0  0  2  0  0  0  0  0  0
   -1.1106    0.5718   -1.4860 N   0  0  0  0  0  2  0  0  0  0  0  0
   -2.1365   -0.2962   -1.4564 N   0  0  0  0  0  0  0  0  0  0  0  0
   -1.4660    1.2627   -3.7233 N   0  0  0  0  0  0  0  0  0  0  0  0
   -4.4587   -1.6008   -1.9784 N   0  0  0  0  0  0  0  0  0  0  0  0
    2.0437    2.6554   -0.6911 C   0  0  0  0  0  3  0  0  0  0  0  0
    2.6584    3.5669   -1.5608 C   0  0  0  0  0  0  0  0  0  0  0  0
    2.1006    3.7662   -2.8329 C   0  0  0  0  0  0  0  0  0  0  0  0
    0.9597    3.0443   -3.2041 C   0  0  0  0  0  0  0  0  0  0  0  0
    0.3979    2.1303   -2.2944 C   0  0  0  0  0  0  0  0  0  0  0  0
   -0.7671    1.2848   -2.5469 C   0  0  1  0  0  3  0  0  0  0  0  0
   -2.1171   -0.9576   -0.2714 C   0  0  0  0  0  0  0  0  0  0  0  0
   -3.1090   -1.9838    0.0328 C   0  0  0  0  0  0  0  0  0  0  0  0
   -2.9470   -2.7206    1.2377 C   0  0  0  0  0  0  0  0  0  0  0  0
   -3.8387   -3.7164    1.6143 C   0  0  0  0  0  0  0  0  0  0  0  0
   -4.9409   -4.0010    0.7751 C   0  0  0  0  0  0  0  0  0  0  0  0
   -5.1339   -3.2998   -0.4088 C   0  0  0  0  0  0  0  0  0  0  0  0
   -4.2345   -2.2747   -0.8207 C   0  0  0  0  0  0  0  0  0  0  0  0
    2.4398    2.4550    0.3155 H   0  0  0  0  0  0  0  0  0  0  0  0
    3.5581    4.1069   -1.2360 H   0  0  0  0  0  0  0  0  0  0  0  0
    0.4989    3.1948   -4.1905 H   0  0  0  0  0  0  0  0  0  0  0  0
   -0.9601    1.4910   -4.5799 H   0  0  0  0  0  0  0  0  0  0  0  0
   -2.1039    0.4667   -3.8125 H   0  0  0  0  0  0  0  0  0  0  0  0
    2.5528    4.4819   -3.5350 H   0  0  0  0  0  0  0  0  0  0  0  0
   -5.2620   -1.8347   -2.5566 H   0  0  0  0  0  0  0  0  0  0  0  0
   -3.7826   -0.8799   -2.2533 H   0  0  0  0  0  0  0  0  0  0  0  0
   -2.0766   -2.4775    1.8624 H   0  0  0  0  0  0  0  0  0  0  0  0
   -3.6880   -4.2783    2.5467 H   0  0  0  0  0  0  0  0  0  0  0  0
   -5.6575   -4.7878    1.0560 H   0  0  0  0  0  0  0  0  0  0  0  0
   -5.9958   -3.5301   -1.0540 H   0  0  0  0  0  0  0  0  0  0  0  0
  2  7  1  0  0  0  0
  3  4  1  0  0  0  0
  4 13  2  0  0  0  0
  5 12  1  0  0  0  0
  6 19  1  0  0  0  0
  7 20  1  0  0  0  0
  8 21  1  0  0  0  0
  8  7  1  0  0  0  0
  9  8  2  0  0  0  0
 10  9  1  0  0  0  0
 10 11  2  0  0  0  0
 11  2  1  0  0  0  0
 12 11  1  0  0  0  0
 12  3  1  1  0  0  0
 13 14  1  0  0  0  0
 13  1  1  0  0  0  0
 14 15  1  0  0  0  0
 15 16  2  0  0  0  0
 15 28  1  0  0  0  0
 16 29  1  0  0  0  0
 17 30  1  0  0  0  0
 17 16  1  0  0  0  0
 18 17  2  0  0  0  0
 19 18  1  0  0  0  0
 19 14  2  0  0  0  0
 22 10  1  0  0  0  0
 23  5  1  0  0  0  0
 24  5  1  0  0  0  0
 25  9  1  0  0  0  0
 26  6  1  0  0  0  0
 27  6  1  0  0  0  0
 31 18  1  0  0  0  0
M  CHG  1   1  -1
M  END
