1,13,20
q = -1.0, confidence = 0.006

 38 38  0  0  1  0  0  0  0  0999 V2000
   -1.1025    1.1849   -0.0362 O   0  0  0  0  0  1  0  0  0  0  0  0
    3.1623    0.5454    2.0241 C   0  0  0  0  0  0  0  0  0  0  0  0
    3.2980    0.3241    3.1010 H   0  0  0  0  0  0  0  0  0  0  0  0
    2.4002    1.3392    1.9063 H   0  0  0  0  0  0  0  0  0  0  0  0
    4.1236    0.9388    1.6403 H   0  0  0  0  0  0  0  0  0  0  0  0
   -2.2977    0.6714   -0.0296 C   0  0  1  0  0  3  0  0  0  0  0  0
   -2.5967   -0.7422    0.0363 C   0  0  0  0  0  0  0  0  0  0  0  0
   -1.5348   -1.7279    0.0616 C   0  0  0  0  0  0  0  0  0  0  0  0
   -1.8768   -3.1919    0.2356 C   0  0  0  0  0  0  0  0  0  0  0  0
   -1.1761   -3.6847    0.9371 H   0  0  0  0  0  0  0  0  0  0  0  0
   -1.8159   -3.7422   -0.7282 H   0  0  0  0  0  0  0  0  0  0  0  0
   -2.8926   -3.3350    0.6362 H   0  0  0  0  0  0  0  0  0  0  0  0
   -0.2542   -1.3896   -0.0827 N   0  0  0  0  0  2  0  0  0  0  0  0
    0.7528   -2.4518   -0.1412 C   0  0  0  0  0  0  0  0  0  0  0  0
    0.9434   -2.8740    0.8723 H   0  0  0  0  0  0  0  0  0  0  0  0
    0.4281   -3.3038   -0.7745 H   0  0  0  0  0  0  0  0  0  0  0  0
    2.0175   -1.8634   -0.7345 C   0  0  0  0  0  0  0  0  0  0  0  0
    1.8682   -1.6855   -1.8180 H   0  0  0  0  0  0  0  0  0  0  0  0
    2.8722   -2.5674   -0.6153 H   0  0  0  0  0  0  0  0  0  0  0  0
    2.3085   -0.5485   -0.1160 N   0  0  0  0  0  0  0  0  0  0  0  0
    3.3130    0.1986   -0.9292 C   0  0  0  0  0  0  0  0  0  0  0  0
    3.3177    1.2353   -0.5449 H   0  0  0  0  0  0  0  0  0  0  0  0
    2.8841    0.2707   -1.9486 H   0  0  0  0  0  0  0  0  0  0  0  0
    4.7136   -0.4070   -0.9752 C   0  0  0  0  0  0  0  0  0  0  0  0
    5.3494    0.2181   -1.6329 H   0  0  0  0  0  0  0  0  0  0  0  0
    4.7306   -1.4358   -1.3892 H   0  0  0  0  0  0  0  0  0  0  0  0
    5.2011   -0.4297    0.0199 H   0  0  0  0  0  0  0  0  0  0  0  0
    2.7289   -0.7270    1.3106 C   0  0  0  0  0  0  0  0  0  0  0  0
    3.5440   -1.4886    1.3451 H   0  0  0  0  0  0  0  0  0  0  0  0
    1.8635   -1.1667    1.8433 H   0  0  0  0  0  0  0  0  0  0  0  0
   -3.9730   -1.1290    0.0426 C   0  0  0  0  0  0  0  0  0  0  0  0
   -4.2345   -2.1956    0.0647 H   0  0  0  0  0  0  0  0  0  0  0  0
   -5.0077   -0.2053   -0.0059 C   0  0  0  0  0  0  0  0  0  0  0  0
   -6.0526   -0.5475   -0.0070 H   0  0  0  0  0  0  0  0  0  0  0  0
   -4.7029    1.1775   -0.0587 C   0  0  0  0  0  0  0  0  0  0  0  0
   -5.5153    1.9202   -0.0921 H   0  0  0  0  0  0  0  0  0  0  0  0
   -3.3844    1.6028   -0.0723 C   0  0  0  0  0  0  0  0  0  0  0  0
   -3.1080    2.6663   -0.1146 H   0  0  0  0  0  0  0  0  0  0  0  0
  2  3  1  0  0  0  0
  4  2  1  0  0  0  0
  5  2  1  0  0  0  0
  6  1  1  1  0  0  0
  6  7  1  0  0  0  0
  7 31  1  0  0  0  0
  7  8  2  0  0  0  0
  8  9  1  0  0  0  0
  9 12  1  0  0  0  0
  9 10  1  0  0  0  0
 11  9  1  0  0  0  0
 13  8  1  0  0  0  0
 14 13  1  0  0  0  0
 14 15  1  0  0  0  0
 16 14  1  0  0  0  0
 17 19  1  0  0  0  0
 17 14  1  0  0  0  0
 17 20  1  0  0  0  0
 18 17  1  0  0  0  0
 20 28  1  0  0  0  0
 21 22  1  0  0  0  0
 21 20  1  0  0  0  0
 23 21  1  0  0  0  0
 24 21  1  0  0  0  0
 24 27  1  0  0  0  0
 25 24  1  0  0  0  0
 26 24  1  0  0  0  0
 28 29  1  0  0  0  0
 28 30  1  0  0  0  0
 28  2  1  0  0  0  0
 31 32  1  0  0  0  0
 33 31  2  0  0  0  0
 34 33  1  0  0  0  0
 35 33  1  0  0  0  0
 36 35  1  0  0  0  0
 37 35  2  0  0  0  0
 37  6  1  0  0  0  0
 38 37  1  0  0  0  0
M  END
