1,5,6
q = -1.0, confidence = 0.012

 31 32  0  0  1  0  0  0  0  0999 V2000
   -0.3766   -1.7845    0.1086 N   0  0  0  0  0  2  0  0  0  0  0  0
    3.7932    1.3964   -0.3352 O   0  0  0  0  0  0  0  0  0  0  0  0
   -3.5228    0.5971   -0.3993 C   0  0  0  0  0  3  0  0  0  0  0  0
   -3.1783    1.6225   -0.6050 H   0  0  0  0  0  0  0  0  0  0  0  0
    1.3783    0.5121   -0.2263 O   0  0  0  0  0  1  0  0  0  0  0  0
   -2.5289   -0.2964   -0.1889 N   0  0  0  0  0  2  0  0  0  0  0  0
   -4.8643    0.2135   -0.3628 C   0  0  0  0  0  0  0  0  0  0  0  0
   -5.6474    0.9649   -0.5356 H   0  0  0  0  0  0  0  0  0  0  0  0
   -5.1828   -1.1298   -0.1059 C   0  0  0  0  0  0  0  0  0  0  0  0
   -6.2311   -1.4607   -0.0691 H   0  0  0  0  0  0  0  0  0  0  0  0
   -4.1443   -2.0478    0.0994 C   0  0  0  0  0  0  0  0  0  0  0  0
   -4.3562   -3.1089    0.2971 H   0  0  0  0  0  0  0  0  0  0  0  0
   -2.8157   -1.6050    0.0518 C   0  0  0  0  0  0  0  0  0  0  0  0
   -1.6316   -2.5169    0.2574 C   0  0  0  0  0  0  0  0  0  0  0  0
   -1.6992   -2.9697    1.2731 H   0  0  0  0  0  0  0  0  0  0  0  0
   -1.6889   -3.3589   -0.4698 H   0  0  0  0  0  0  0  0  0  0  0  0
    0.7758   -2.3996    0.2327 C   0  0  0  0  0  0  0  0  0  0  0  0
    0.7503   -3.4915    0.4272 H   0  0  0  0  0  0  0  0  0  0  0  0
    2.0758   -1.8110    0.1490 C   0  0  0  0  0  0  0  0  0  0  0  0
    3.1989   -2.6896    0.3035 C   0  0  0  0  0  0  0  0  0  0  0  0
    3.0055   -3.7604    0.4722 H   0  0  0  0  0  0  0  0  0  0  0  0
    4.4930   -2.2129    0.2448 C   0  0  0  0  0  0  0  0  0  0  0  0
    5.3474   -2.8944    0.3653 H   0  0  0  0  0  0  0  0  0  0  0  0
    4.7285   -0.8280    0.0288 C   0  0  0  0  0  0  0  0  0  0  0  0
    5.7633   -0.4618   -0.0142 H   0  0  0  0  0  0  0  0  0  0  0  0
    3.6689    0.0623   -0.1258 C   0  0  0  0  0  0  0  0  0  0  0  0
    2.2895   -0.3967   -0.0712 C   0  0  1  0  0  3  0  0  0  0  0  0
    5.0937    1.9406   -0.3905 C   0  0  0  0  0  0  0  0  0  0  0  0
    4.9724    3.0266   -0.5597 H   0  0  0  0  0  0  0  0  0  0  0  0
    5.6913    1.5081   -1.2258 H   0  0  0  0  0  0  0  0  0  0  0  0
    5.6518    1.7821    0.5607 H   0  0  0  0  0  0  0  0  0  0  0  0
  1 17  1  0  0  0  0
  1 14  1  0  0  0  0
  2 26  1  0  0  0  0
  3  7  1  0  0  0  0
  3  6  1  0  0  0  0
  4  3  1  0  0  0  0
  6 13  1  0  0  0  0
  7  9  2  0  0  0  0
  8  7  1  0  0  0  0
  9 10  1  0  0  0  0
  9 11  1  0  0  0  0
 11 12  1  0  0  0  0
 13 11  2  0  0  0  0
 13 14  1  0  0  0  0
 14 15  1  0  0  0  0
 16 14  1  0  0  0  0
 17 18  1  0  0  0  0
 19 17  2  0  0  0  0
 19 20  1  0  0  0  0
 20 21  1  0  0  0  0
 22 20  2  0  0  0  0
 22 23  1  0  0  0  0
 24 22  1  0  0  0  0
 25 24  1  0  0  0  0
 26 27  1  0  0  0  0
 26 24  2  0  0  0  0
 27  5  1  6  0  0  0
 27 19  1  0  0  0  0
 28  2  1  0  0  0  0
 28 31  1  0  0  0  0
 29 28  1  0  0  0  0
 30 28  1  0  0  0  0
M  END
