1,3,4
q = -1.0, confidence = 0.024

 32 34  0  0  0  0  0  0  0  0999 V2000
    0.9039    1.8548   -1.0374 N   0  0  0  0  0  2  0  0  0  0  0  0
   -2.7413   -1.2167   -0.5176 C   0  0  0  0  0  0  0  0  0  0  0  0
   -1.2812    0.5148   -1.4354 N   0  0  0  0  0  2  0  0  0  0  0  0
   -0.8890   -0.8606    1.0190 O   0  5  0  0  0  0  0  0  0  0  0  0
   -1.9841   -1.4580    0.7082 C   0  0  0  0  0  0  0  0  0  0  0  0
    0.2838    2.1032   -2.2440 C   0  0  0  0  0  0  0  0  0  0  0  0
    0.7965    3.0390   -3.1948 C   0  0  0  0  0  0  0  0  0  0  0  0
    2.0183    2.5360   -0.7405 C   0  0  0  0  0  0  0  0  0  0  0  0
    2.4841    2.3110    0.2292 H   0  0  0  0  0  0  0  0  0  0  0  0
   -3.9340   -1.9458   -0.7535 C   0  0  0  0  0  0  0  0  0  0  0  0
   -4.5189   -1.7872   -1.6711 H   0  0  0  0  0  0  0  0  0  0  0  0
    2.5883    3.4833   -1.6223 C   0  0  0  0  0  0  0  0  0  0  0  0
    3.5093    4.0015   -1.3198 H   0  0  0  0  0  0  0  0  0  0  0  0
   -6.0134   -4.4233    0.7399 O   0  0  0  0  0  0  0  0  0  0  0  0
   -2.3277   -0.2860   -1.5185 C   0  0  0  0  0  3  0  0  0  0  0  0
   -2.9571   -0.2502   -2.4274 H   0  0  0  0  0  0  0  0  0  0  0  0
   -2.5082   -2.4416    1.6202 C   0  0  0  0  0  0  0  0  0  0  0  0
   -1.9275   -2.6198    2.5367 H   0  0  0  0  0  0  0  0  0  0  0  0
   -4.3945   -2.8761    0.1680 C   0  0  0  0  0  0  0  0  0  0  0  0
   -0.9165    1.3699   -2.4928 C   0  0  0  0  0  0  0  0  0  0  0  0
   -6.2336   -3.3534   -1.1570 O   0  0  0  0  0  0  0  0  0  0  0  0
    1.9901    3.7368   -2.8489 C   0  0  0  0  0  0  0  0  0  0  0  0
    2.4199    4.4636   -3.5544 H   0  0  0  0  0  0  0  0  0  0  0  0
   -5.6359   -3.6031   -0.1037 N   0  0  0  0  0  0  0  0  0  0  0  0
   -1.5841    1.5729   -3.7046 C   0  0  0  0  0  0  0  0  0  0  0  0
   -2.5095    1.0271   -3.9344 H   0  0  0  0  0  0  0  0  0  0  0  0
   -3.6776   -3.1312    1.3665 C   0  0  0  0  0  0  0  0  0  0  0  0
   -4.0772   -3.8798    2.0640 H   0  0  0  0  0  0  0  0  0  0  0  0
    0.0873    3.2149   -4.4173 C   0  0  0  0  0  3  0  0  0  0  0  0
    0.4714    3.9271   -5.1626 H   0  0  0  0  0  0  0  0  0  0  0  0
   -1.0745    2.4901   -4.6564 C   0  0  0  0  0  0  0  0  0  0  0  0
   -1.6185    2.6278   -5.6028 H   0  0  0  0  0  0  0  0  0  0  0  0
  1  8  1  0  0  0  0
  2  5  1  0  0  0  0
  5  4  1  0  0  0  0
  5 17  2  0  0  0  0
  6  1  1  0  0  0  0
  7 22  2  0  0  0  0
  7  6  1  0  0  0  0
  8  9  1  0  0  0  0
 10  2  2  0  0  0  0
 10 19  1  0  0  0  0
 11 10  1  0  0  0  0
 12 13  1  0  0  0  0
 12  8  2  0  0  0  0
 15  3  1  0  0  0  0
 15  2  1  0  0  0  0
 16 15  1  0  0  0  0
 17 18  1  0  0  0  0
 19 27  2  0  0  0  0
 20  6  2  0  0  0  0
 20  3  1  0  0  0  0
 21 24  2  0  0  0  0
 22 12  1  0  0  0  0
 23 22  1  0  0  0  0
 24 19  1  0  0  0  0
 24 14  2  0  0  0  0
 25 20  1  0  0  0  0
 26 25  1  0  0  0  0
 27 17  1  0  0  0  0
 27 28  1  0  0  0  0
 29  7  1  0  0  0  0
 30 29  1  0  0  0  0
 31 29  1  0  0  0  0
 31 25  2  0  0  0  0
 32 31  1  0  0  0  0
M  CHG  1   4  -1
M  END
