2,3,4
q = -1.0, confidence = 0.004

 30 32  0  0  0  0  0  0  0  0999 V2000
   -5.6459    3.9097    0.0323 Br  0  0  0  0  0  0  0  0  0  0  0  0
    0.8369   -2.2249   -1.1006 N   0  0  0  0  0  2  0  0  0  0  0  0
   -1.3870   -0.8838   -1.3310 N   0  0  0  0  0  2  0  0  0  0  0  0
   -0.7824    0.4670    1.0853 O   0  5  0  0  0  0  0  0  0  0  0  0
   -2.3693   -0.0021   -1.3731 C   0  0  0  0  0  3  0  0  0  0  0  0
   -3.0433   -0.0229   -2.2497 H   0  0  0  0  0  0  0  0  0  0  0  0
   -2.6545    0.9825   -0.3927 C   0  0  0  0  0  0  0  0  0  0  0  0
   -1.8422    1.1586    0.7948 C   0  0  0  0  0  0  0  0  0  0  0  0
   -2.2412    2.1762    1.7190 C   0  0  0  0  0  0  0  0  0  0  0  0
   -1.6259    2.3095    2.6198 H   0  0  0  0  0  0  0  0  0  0  0  0
   -3.3506    2.9724    1.4881 C   0  0  0  0  0  0  0  0  0  0  0  0
   -3.6297    3.7509    2.2133 H   0  0  0  0  0  0  0  0  0  0  0  0
   -4.1365    2.7984    0.3138 C   0  0  0  0  0  0  0  0  0  0  0  0
   -3.7927    1.8247   -0.6061 C   0  0  0  0  0  0  0  0  0  0  0  0
   -4.3958    1.6858   -1.5155 H   0  0  0  0  0  0  0  0  0  0  0  0
    2.0038   -2.8405   -0.9087 C   0  0  0  0  0  0  0  0  0  0  0  0
    2.5715   -2.5586   -0.0110 H   0  0  0  0  0  0  0  0  0  0  0  0
    2.4973   -3.8094   -1.8148 C   0  0  0  0  0  0  0  0  0  0  0  0
    3.4670   -4.2844   -1.6111 H   0  0  0  0  0  0  0  0  0  0  0  0
    1.7528   -4.1398   -2.9378 C   0  0  0  0  0  0  0  0  0  0  0  0
    2.1158   -4.8916   -3.6548 H   0  0  0  0  0  0  0  0  0  0  0  0
    0.5042   -3.4963   -3.1691 C   0  0  0  0  0  0  0  0  0  0  0  0
   -0.3429   -3.7530   -4.2841 C   0  0  0  0  0  3  0  0  0  0  0  0
   -0.0369   -4.4978   -5.0328 H   0  0  0  0  0  0  0  0  0  0  0  0
   -1.5434   -3.0636   -4.4126 C   0  0  0  0  0  0  0  0  0  0  0  0
   -2.1987   -3.2663   -5.2724 H   0  0  0  0  0  0  0  0  0  0  0  0
   -1.9520   -2.0976   -3.4603 C   0  0  0  0  0  0  0  0  0  0  0  0
   -2.9114   -1.5819   -3.6056 H   0  0  0  0  0  0  0  0  0  0  0  0
   -1.1434   -1.8103   -2.3555 C   0  0  0  0  0  0  0  0  0  0  0  0
    0.0839   -2.5243   -2.2065 C   0  0  0  0  0  0  0  0  0  0  0  0
  1 13  1  0  0  0  0
  2 16  1  0  0  0  0
  5  3  1  0  0  0  0
  5  7  1  0  0  0  0
  6  5  1  0  0  0  0
  7  8  1  0  0  0  0
  8  4  1  0  0  0  0
  8  9  2  0  0  0  0
  9 10  1  0  0  0  0
 11  9  1  0  0  0  0
 11 12  1  0  0  0  0
 13 11  2  0  0  0  0
 14  7  2  0  0  0  0
 14 13  1  0  0  0  0
 15 14  1  0  0  0  0
 16 17  1  0  0  0  0
 18 19  1  0  0  0  0
 18 16  2  0  0  0  0
 20 18  1  0  0  0  0
 21 20  1  0  0  0  0
 22 20  2  0  0  0  0
 22 30  1  0  0  0  0
 23 22  1  0  0  0  0
 24 23  1  0  0  0  0
 25 23  1  0  0  0  0
 25 27  2  0  0  0  0
 26 25  1  0  0  0  0
 27 29  1  0  0  0  0
 28 27  1  0  0  0  0
 29 30  2  0  0  0  0
 29  3  1  0  0  0  0
 30  2  1  0  0  0  0
M  CHG  1   4  -1
M  END
