1,2,3
q = -1.0, confidence = 0.002

 32 32  0  0  1  0  0  0  0  0999 V2000
    0.3751   -1.1148    0.2001 O   0  5  0  0  0  0  0  0  0  0  0  0
   -0.4751    2.7112    0.3700 N   0  0  0  0  0  0  0  0  0  0  0  0
    1.6723    1.2278   -0.5336 N   0  0  0  0  0  2  0  0  0  0  0  0
    1.5661   -1.6321    0.1026 C   0  0  0  0  0  0  0  0  0  0  0  0
    1.6962   -3.0053    0.4837 C   0  0  0  0  0  0  0  0  0  0  0  0
    0.7873   -3.4950    0.8608 H   0  0  0  0  0  0  0  0  0  0  0  0
    2.9086   -3.6731    0.3991 C   0  0  0  0  0  0  0  0  0  0  0  0
    2.9711   -4.7273    0.7116 H   0  0  0  0  0  0  0  0  0  0  0  0
    4.0640   -3.0030   -0.0676 C   0  0  0  0  0  0  0  0  0  0  0  0
    5.0321   -3.5220   -0.1160 H   0  0  0  0  0  0  0  0  0  0  0  0
    3.9642   -1.6722   -0.4544 C   0  0  0  0  0  0  0  0  0  0  0  0
    4.8753   -1.1602   -0.7938 H   0  0  0  0  0  0  0  0  0  0  0  0
    2.7392   -0.9441   -0.3905 C   0  0  0  0  0  0  0  0  0  0  0  0
    2.6956    0.4500   -0.8109 C   0  0  2  0  0  3  0  0  0  0  0  0
    1.6428    2.6435   -0.8799 C   0  0  0  0  0  0  0  0  0  0  0  0
    1.1732    2.7759   -1.8820 H   0  0  0  0  0  0  0  0  0  0  0  0
    2.6543    3.0941   -0.9326 H   0  0  0  0  0  0  0  0  0  0  0  0
    0.8449    3.3621    0.1989 C   0  0  0  0  0  0  0  0  0  0  0  0
    1.3797    3.2558    1.1621 H   0  0  0  0  0  0  0  0  0  0  0  0
    0.7289    4.4458   -0.0321 H   0  0  0  0  0  0  0  0  0  0  0  0
   -1.0629    3.0568    1.6819 C   0  0  0  0  0  0  0  0  0  0  0  0
   -2.0006    2.4875    1.8090 H   0  0  0  0  0  0  0  0  0  0  0  0
   -1.2651    4.1498    1.7351 H   0  0  0  0  0  0  0  0  0  0  0  0
   -0.3598    2.7476    2.4750 H   0  0  0  0  0  0  0  0  0  0  0  0
   -1.4216    3.0947   -0.6941 C   0  0  0  0  0  0  0  0  0  0  0  0
   -2.3553    2.5171   -0.5659 H   0  0  0  0  0  0  0  0  0  0  0  0
   -1.0060    2.8603   -1.6892 H   0  0  0  0  0  0  0  0  0  0  0  0
   -1.6529    4.1817   -0.6317 H   0  0  0  0  0  0  0  0  0  0  0  0
    3.8708    1.0209   -1.5808 C   0  0  0  0  0  0  0  0  0  0  0  0
    4.4256    0.2284   -2.1096 H   0  0  0  0  0  0  0  0  0  0  0  0
    4.5844    1.5379   -0.9041 H   0  0  0  0  0  0  0  0  0  0  0  0
    3.5377    1.7521   -2.3403 H   0  0  0  0  0  0  0  0  0  0  0  0
  2 21  1  0  0  0  0
  4  1  1  0  0  0  0
  4  5  1  0  0  0  0
  5  6  1  0  0  0  0
  7  5  2  0  0  0  0
  7  8  1  0  0  0  0
  9  7  1  0  0  0  0
 10  9  1  0  0  0  0
 11 13  1  0  0  0  0
 11  9  2  0  0  0  0
 12 11  1  0  0  0  0
 13  4  2  0  0  0  0
 14  3  1  1  0  0  0
 14 13  1  0  0  0  0
 15  3  1  0  0  0  0
 15 18  1  0  0  0  0
 16 15  1  0  0  0  0
 17 15  1  0  0  0  0
 18  2  1  0  0  0  0
 18 19  1  0  0  0  0
 20 18  1  0  0  0  0
 21 23  1  0  0  0  0
 21 22  1  0  0  0  0
 21 24  1  0  0  0  0
 25 28  1  0  0  0  0
 25 26  1  0  0  0  0
 25  2  1  0  0  0  0
 27 25  1  0  0  0  0
 29 31  1  0  0  0  0
 29 14  1  0  0  0  0
 30 29  1  0  0  0  0
 32 29  1  0  0  0  0
M  CHG  1   1  -1
M  END
