1,2,4
q = -1.0, confidence = 0.006

 28 29  0  0  1  0  0  0  0  0999 V2000
    1.8571   -1.5070    0.3152 O   0  5  0  0  0  0  0  0  0  0  0  0
   -0.8464    1.4396   -1.6246 N   0  0  0  0  0  2  0  0  0  0  0  0
   -1.5267    3.3118   -3.5817 N   0  0  0  0  0  0  0  0  0  0  0  0
    1.6528    0.3704   -1.5282 N   0  0  0  0  0  2  0  0  0  0  0  0
    2.8491   -0.1861   -1.3656 N   0  0  0  0  0  0  0  0  0  0  0  0
    5.4541   -3.3638    1.1872 N   0  0  0  0  0  0  0  0  0  0  0  0
   -2.0783    1.9509   -1.6874 C   0  0  0  0  0  3  0  0  0  0  0  0
   -2.8039    1.6055   -0.9298 H   0  0  0  0  0  0  0  0  0  0  0  0
   -2.4233    2.8911   -2.6745 C   0  0  0  0  0  0  0  0  0  0  0  0
   -3.4429    3.3088   -2.7283 H   0  0  0  0  0  0  0  0  0  0  0  0
   -0.2960    2.7967   -3.5109 C   0  0  0  0  0  0  0  0  0  0  0  0
    0.4334    3.1487   -4.2590 H   0  0  0  0  0  0  0  0  0  0  0  0
    0.0830    1.8385   -2.5306 C   0  0  0  0  0  0  0  0  0  0  0  0
    1.4396    1.2730   -2.4642 C   0  0  2  0  0  3  0  0  0  0  0  0
    2.5047    1.7148   -3.4248 C   0  0  0  0  0  0  0  0  0  0  0  0
    3.4415    1.1809   -3.1856 H   0  0  0  0  0  0  0  0  0  0  0  0
    2.6843    2.8084   -3.3617 H   0  0  0  0  0  0  0  0  0  0  0  0
    2.2229    1.4900   -4.4747 H   0  0  0  0  0  0  0  0  0  0  0  0
    2.8504   -1.1383   -0.3820 C   0  0  0  0  0  0  0  0  0  0  0  0
    4.1755   -1.7750   -0.1330 C   0  0  0  0  0  0  0  0  0  0  0  0
    5.3258   -1.4451   -0.8772 C   0  0  0  0  0  0  0  0  0  0  0  0
    5.2478   -0.6958   -1.6774 H   0  0  0  0  0  0  0  0  0  0  0  0
    6.5299   -2.0871   -0.5706 C   0  0  0  0  0  0  0  0  0  0  0  0
    7.4525   -1.8617   -1.1266 H   0  0  0  0  0  0  0  0  0  0  0  0
    6.5402   -3.0353    0.4679 C   0  0  0  0  0  0  0  0  0  0  0  0
    7.4779   -3.5580    0.7309 H   0  0  0  0  0  0  0  0  0  0  0  0
    4.3040   -2.7450    0.8865 C   0  0  0  0  0  0  0  0  0  0  0  0
    3.4105   -3.0152    1.4748 H   0  0  0  0  0  0  0  0  0  0  0  0
  3 11  1  0  0  0  0
  3  9  2  0  0  0  0
  4  5  1  0  0  0  0
  5 19  2  0  0  0  0
  7  2  1  0  0  0  0
  7  8  1  0  0  0  0
  9  7  1  0  0  0  0
 10  9  1  0  0  0  0
 11 13  2  0  0  0  0
 12 11  1  0  0  0  0
 13 14  1  0  0  0  0
 13  2  1  0  0  0  0
 14  4  1  6  0  0  0
 15 17  1  0  0  0  0
 15 16  1  0  0  0  0
 15 14  1  0  0  0  0
 18 15  1  0  0  0  0
 19 20  1  0  0  0  0
 19  1  1  0  0  0  0
 20 27  2  0  0  0  0
 21 23  2  0  0  0  0
 21 20  1  0  0  0  0
 22 21  1  0  0  0  0
 23 25  1  0  0  0  0
 24 23  1  0  0  0  0
 25 26  1  0  0  0  0
 25  6  2  0  0  0  0
 27  6  1  0  0  0  0
 27 28  1  0  0  0  0
M  CHG  1   1  -1
M  END
