1,2,3
q = -1.0, confidence = 0.208

 32 32  0  0  1  0  0  0  0  0999 V2000
   -0.6757    1.2098   -0.0971 O   0  0  0  0  0  1  0  0  0  0  0  0
    0.1068   -1.3959   -0.0348 N   0  0  0  0  0  2  0  0  0  0  0  0
    2.6598   -0.5892    0.1875 N   0  0  0  0  0  0  0  0  0  0  0  0
   -1.8794    0.7239    0.0075 C   0  0  1  0  0  3  0  0  0  0  0  0
   -2.9412    1.6775    0.1173 C   0  0  0  0  0  0  0  0  0  0  0  0
   -2.6436    2.7361    0.1119 H   0  0  0  0  0  0  0  0  0  0  0  0
   -4.2643    1.2796    0.2264 C   0  0  0  0  0  0  0  0  0  0  0  0
   -5.0560    2.0400    0.3139 H   0  0  0  0  0  0  0  0  0  0  0  0
   -4.6000   -0.0969    0.2306 C   0  0  0  0  0  0  0  0  0  0  0  0
   -5.6470   -0.4164    0.3338 H   0  0  0  0  0  0  0  0  0  0  0  0
   -3.5918   -1.0429    0.1060 C   0  0  0  0  0  0  0  0  0  0  0  0
   -3.8708   -2.1054    0.1287 H   0  0  0  0  0  0  0  0  0  0  0  0
   -2.2138   -0.6837   -0.0134 C   0  0  0  0  0  0  0  0  0  0  0  0
   -1.1845   -1.6960   -0.1465 C   0  0  0  0  0  0  0  0  0  0  0  0
    1.1109   -2.4581   -0.1381 C   0  0  0  0  0  0  0  0  0  0  0  0
    1.3341   -2.6798   -1.2078 H   0  0  0  0  0  0  0  0  0  0  0  0
    0.7743   -3.4124    0.3164 H   0  0  0  0  0  0  0  0  0  0  0  0
    2.3512   -1.9800    0.5925 C   0  0  0  0  0  0  0  0  0  0  0  0
    2.1437   -1.9634    1.6806 H   0  0  0  0  0  0  0  0  0  0  0  0
    3.2234   -2.6511    0.4187 H   0  0  0  0  0  0  0  0  0  0  0  0
    3.5268    0.0674    1.1872 C   0  0  0  0  0  0  0  0  0  0  0  0
    4.5179   -0.4379    1.2332 H   0  0  0  0  0  0  0  0  0  0  0  0
    3.0426    0.0194    2.1804 H   0  0  0  0  0  0  0  0  0  0  0  0
    3.6368    1.1293    0.9015 H   0  0  0  0  0  0  0  0  0  0  0  0
    3.2905   -0.5169   -1.1477 C   0  0  0  0  0  0  0  0  0  0  0  0
    4.2964   -0.9961   -1.1347 H   0  0  0  0  0  0  0  0  0  0  0  0
    3.3782    0.5504   -1.4233 H   0  0  0  0  0  0  0  0  0  0  0  0
    2.6569   -1.0238   -1.8987 H   0  0  0  0  0  0  0  0  0  0  0  0
   -1.5799   -3.1318   -0.4199 C   0  0  0  0  0  0  0  0  0  0  0  0
   -0.9356   -3.5786   -1.2022 H   0  0  0  0  0  0  0  0  0  0  0  0
   -2.6204   -3.2094   -0.7732 H   0  0  0  0  0  0  0  0  0  0  0  0
   -1.4836   -3.7662    0.4876 H   0  0  0  0  0  0  0  0  0  0  0  0
  3 18  1  0  0  0  0
  3 21  1  0  0  0  0
  4  1  1  6  0  0  0
  4  5  1  0  0  0  0
  5  7  2  0  0  0  0
  6  5  1  0  0  0  0
  7  9  1  0  0  0  0
  7  8  1  0  0  0  0
  9 10  1  0  0  0  0
 11 12  1  0  0  0  0
 11  9  2  0  0  0  0
 13  4  1  0  0  0  0
 13 11  1  0  0  0  0
 14  2  1  0  0  0  0
 14 13  2  0  0  0  0
 15  2  1  0  0  0  0
 15 17  1  0  0  0  0
 15 18  1  0  0  0  0
 16 15  1  0  0  0  0
 18 19  1  0  0  0  0
 20 18  1  0  0  0  0
 21 22  1  0  0  0  0
 21 23  1  0  0  0  0
 24 21  1  0  0  0  0
 25 26  1  0  0  0  0
 25  3  1  0  0  0  0
 27 25  1  0  0  0  0
 28 25  1  0  0  0  0
 29 14  1  0  0  0  0
 29 32  1  0  0  0  0
 30 29  1  0  0  0  0
 31 29  1  0  0  0  0
M  END
