3,4,5
q = 0.0, confidence = 0.9

 36 37  0  0  1  0  0  0  0  0999 V2000
   -1.7151    2.8930   -0.3804 Br  0  0  0  0  0  0  0  0  0  0  0  0
   -2.3800   -2.7377    0.5339 Br  0  0  0  0  0  0  0  0  0  0  0  0
    1.5086    0.3486    0.9065 N   0  0  0  0  0  2  0  0  0  0  0  0
   -0.8469    0.0098    0.4571 N   0  0  0  0  0  2  0  0  0  0  0  0
    2.6299   -0.3950   -1.2087 O   0  5  0  0  0  0  0  0  0  0  0  0
    4.7428    0.0199   -0.4795 O   0  0  0  0  0  0  0  0  0  0  0  0
    2.8755    0.4413    0.9558 C   0  0  0  0  0  0  0  0  0  0  0  0
    3.5289    0.9107    2.1007 C   0  0  0  0  0  0  0  0  0  0  0  0
    4.6255    0.9754    2.1046 H   0  0  0  0  0  0  0  0  0  0  0  0
    2.7529    1.2672    3.2199 C   0  0  0  0  0  0  0  0  0  0  0  0
    3.2392    1.6391    4.1326 H   0  0  0  0  0  0  0  0  0  0  0  0
    1.3552    1.1283    3.1763 C   0  0  0  0  0  0  0  0  0  0  0  0
    0.7401    1.3818    4.0511 H   0  0  0  0  0  0  0  0  0  0  0  0
    0.7316    0.6549    2.0069 C   0  0  0  0  0  0  0  0  0  0  0  0
   -0.6631    0.4618    1.7065 C   0  0  1  0  0  3  0  0  0  0  0  0
   -1.7817    0.8121    2.6339 C   0  0  0  0  0  0  0  0  0  0  0  0
   -2.6158    0.0915    2.5292 H   0  0  0  0  0  0  0  0  0  0  0  0
   -2.1812    1.8250    2.4106 H   0  0  0  0  0  0  0  0  0  0  0  0
   -1.4422    0.8018    3.6865 H   0  0  0  0  0  0  0  0  0  0  0  0
   -2.1427    0.0460   -0.1222 C   0  0  0  0  0  0  0  0  0  0  0  0
   -2.6643    1.2639   -0.6302 C   0  0  0  0  0  0  0  0  0  0  0  0
   -3.8920    1.3095   -1.3033 C   0  0  0  0  0  0  0  0  0  0  0  0
   -4.2555    2.2681   -1.6974 H   0  0  0  0  0  0  0  0  0  0  0  0
   -4.6357    0.1327   -1.4656 C   0  0  0  0  0  0  0  0  0  0  0  0
   -5.5958    0.1629   -2.0017 H   0  0  0  0  0  0  0  0  0  0  0  0
   -4.1726   -1.0766   -0.9336 C   0  0  0  0  0  0  0  0  0  0  0  0
   -4.7611   -1.9997   -1.0244 H   0  0  0  0  0  0  0  0  0  0  0  0
   -2.9414   -1.1125   -0.2609 C   0  0  0  0  0  0  0  0  0  0  0  0
    3.4244   -0.0144   -0.3184 C   0  0  0  0  0  0  0  0  0  0  0  0
    5.2447   -0.4677   -1.7535 C   0  0  0  0  0  0  0  0  0  0  0  0
    4.7971    0.1467   -2.5622 H   0  0  0  0  0  0  0  0  0  0  0  0
    4.8797   -1.5065   -1.8940 H   0  0  0  0  0  0  0  0  0  0  0  0
    6.7542   -0.3783   -1.7207 C   0  0  0  0  0  0  0  0  0  0  0  0
    7.1693   -0.7443   -2.6802 H   0  0  0  0  0  0  0  0  0  0  0  0
    7.1734   -0.9983   -0.9038 H   0  0  0  0  0  0  0  0  0  0  0  0
    7.0902    0.6673   -1.5753 H   0  0  0  0  0  0  0  0  0  0  0  0
  3  7  1  0  0  0  0
  3 14  1  0  0  0  0
  5 29  1  0  0  0  0
  6 29  1  0  0  0  0
  7  8  1  0  0  0  0
  8  9  1  0  0  0  0
  8 10  2  0  0  0  0
 10 11  1  0  0  0  0
 12 10  1  0  0  0  0
 12 13  1  0  0  0  0
 14 12  2  0  0  0  0
 15  4  1  6  0  0  0
 15 14  1  0  0  0  0
 15 16  1  0  0  0  0
 16 19  1  0  0  0  0
 17 16  1  0  0  0  0
 18 16  1  0  0  0  0
 20  4  1  0  0  0  0
 21  1  1  0  0  0  0
 21 20  2  0  0  0  0
 22 21  1  0  0  0  0
 23 22  1  0  0  0  0
 24 22  2  0  0  0  0
 24 26  1  0  0  0  0
 25 24  1  0  0  0  0
 26 28  2  0  0  0  0
 27 26  1  0  0  0  0
 28 20  1  0  0  0  0
 28  2  1  0  0  0  0
 29  7  2  0  0  0  0
 30 33  1  0  0  0  0
 30  6  1  0  0  0  0
 31 30  1  0  0  0  0
 32 30  1  0  0  0  0
 33 36  1  0  0  0  0
 33 35  1  0  0  0  0
 34 33  1  0  0  0  0
M  CHG  1   5  -1
M  END
