2,3,4
q = -1.0, confidence = 0.0

 24 24  0  0  1  0  0  0  0  0999 V2000
    4.3963    1.8948   -1.3825 O   0  5  0  0  0  0  0  0  0  0  0  0
    2.8156    1.2849    0.1036 O   0  0  0  0  0  0  0  0  0  0  0  0
    1.1059    0.4366   -1.9335 N   0  0  0  0  0  0  0  0  0  0  0  0
    2.3536   -1.3168   -0.1240 N   0  0  0  0  0  2  0  0  0  0  0  0
    1.4859   -0.9503   -2.3308 C   0  0  0  0  0  0  0  0  0  0  0  0
    0.5729   -1.5745   -2.2275 H   0  0  0  0  0  0  0  0  0  0  0  0
    1.7942   -0.9689   -3.3995 H   0  0  0  0  0  0  0  0  0  0  0  0
    2.5578   -1.5233   -1.4435 C   0  0  1  0  0  3  0  0  0  0  0  0
    3.2562   -1.7596    0.7686 C   0  0  0  0  0  0  0  0  0  0  0  0
    3.0430   -1.4985    1.8202 H   0  0  0  0  0  0  0  0  0  0  0  0
    4.3949   -2.4744    0.3750 C   0  0  0  0  0  0  0  0  0  0  0  0
    5.1107   -2.8222    1.1333 H   0  0  0  0  0  0  0  0  0  0  0  0
    4.6092   -2.7074   -0.9902 C   0  0  0  0  0  0  0  0  0  0  0  0
    5.5033   -3.2486   -1.3337 H   0  0  0  0  0  0  0  0  0  0  0  0
    3.6802   -2.2140   -1.9186 C   0  0  0  0  0  0  0  0  0  0  0  0
    3.8281   -2.3503   -2.9995 H   0  0  0  0  0  0  0  0  0  0  0  0
    2.1966    1.4133   -2.2172 C   0  0  0  0  0  0  0  0  0  0  0  0
    2.6787    1.1978   -3.1939 H   0  0  0  0  0  0  0  0  0  0  0  0
    1.7264    2.4155   -2.2771 H   0  0  0  0  0  0  0  0  0  0  0  0
    3.2639    1.5237   -1.1042 C   0  0  0  0  0  0  0  0  0  0  0  0
   -0.1228    0.8176   -2.6603 C   0  0  0  0  0  0  0  0  0  0  0  0
   -0.9239    0.0847   -2.4515 H   0  0  0  0  0  0  0  0  0  0  0  0
    0.0687    0.8401   -3.7555 H   0  0  0  0  0  0  0  0  0  0  0  0
   -0.4561    1.8148   -2.3236 H   0  0  0  0  0  0  0  0  0  0  0  0
  1 20  1  0  0  0  0
  4  9  1  0  0  0  0
  5  6  1  0  0  0  0
  5  3  1  0  0  0  0
  7  5  1  0  0  0  0
  8  5  1  6  0  0  0
  8  4  1  0  0  0  0
  9 10  1  0  0  0  0
 11  9  2  0  0  0  0
 11 12  1  0  0  0  0
 13 11  1  0  0  0  0
 14 13  1  0  0  0  0
 15  8  1  0  0  0  0
 15 13  2  0  0  0  0
 16 15  1  0  0  0  0
 17  3  1  0  0  0  0
 17 20  1  0  0  0  0
 18 17  1  0  0  0  0
 19 17  1  0  0  0  0
 20  2  2  0  0  0  0
 21 22  1  0  0  0  0
 21 24  1  0  0  0  0
 21  3  1  0  0  0  0
 23 21  1  0  0  0  0
M  CHG  1   1  -1
M  END
