1,2,3
q = -1.0, confidence = 0.022

 29 31  0  0  0  0  0  0  0  0999 V2000
   -1.2453    1.5508    1.0516 O   0  5  0  0  0  0  0  0  0  0  0  0
   -0.7371    1.5135   -1.4454 N   0  0  0  0  0  2  0  0  0  0  0  0
    1.0624   -0.2760   -1.3934 N   0  0  0  0  0  2  0  0  0  0  0  0
    2.7619   -0.7858   -3.6255 N   0  0  0  0  0  0  0  0  0  0  0  0
   -1.9852    2.3527    0.3244 C   0  0  0  0  0  0  0  0  0  0  0  0
   -2.9941    3.1965    0.8633 C   0  0  0  0  0  0  0  0  0  0  0  0
   -3.1572    3.1978    1.9504 H   0  0  0  0  0  0  0  0  0  0  0  0
   -3.7609    3.9798    0.0012 C   0  0  0  0  0  0  0  0  0  0  0  0
   -4.5536    4.6196    0.4190 H   0  0  0  0  0  0  0  0  0  0  0  0
   -3.5460    3.9731   -1.4014 C   0  0  0  0  0  0  0  0  0  0  0  0
   -4.1682    4.6031   -2.0534 H   0  0  0  0  0  0  0  0  0  0  0  0
   -2.5476    3.1715   -1.9553 C   0  0  0  0  0  0  0  0  0  0  0  0
   -2.3779    3.1560   -3.0422 H   0  0  0  0  0  0  0  0  0  0  0  0
   -1.7677    2.3679   -1.0943 C   0  0  0  0  0  0  0  0  0  0  0  0
   -0.1196    1.3570   -2.6125 C   0  0  0  0  0  3  0  0  0  0  0  0
   -0.3726    1.9514   -3.5046 H   0  0  0  0  0  0  0  0  0  0  0  0
    0.9203    0.3867   -2.5865 C   0  0  0  0  0  0  0  0  0  0  0  0
    1.7963    0.1036   -3.6812 C   0  0  0  0  0  0  0  0  0  0  0  0
    1.6675    0.6706   -4.6215 H   0  0  0  0  0  0  0  0  0  0  0  0
    2.8909   -1.4888   -2.4526 C   0  0  0  0  0  0  0  0  0  0  0  0
    3.8913   -2.4905   -2.3636 C   0  0  0  0  0  3  0  0  0  0  0  0
    4.5344   -2.6315   -3.2442 H   0  0  0  0  0  0  0  0  0  0  0  0
    4.0314   -3.2560   -1.2116 C   0  0  0  0  0  0  0  0  0  0  0  0
    4.8104   -4.0306   -1.1526 H   0  0  0  0  0  0  0  0  0  0  0  0
    3.1550   -3.0486   -0.1181 C   0  0  0  0  0  0  0  0  0  0  0  0
    3.2472   -3.6754    0.7818 H   0  0  0  0  0  0  0  0  0  0  0  0
    2.1685   -2.0703   -0.1670 C   0  0  0  0  0  0  0  0  0  0  0  0
    1.4704   -1.9287    0.6630 H   0  0  0  0  0  0  0  0  0  0  0  0
    2.0270   -1.2489   -1.3159 C   0  0  0  0  0  0  0  0  0  0  0  0
  2 14  1  0  0  0  0
  3 29  1  0  0  0  0
  4 20  2  0  0  0  0
  5  6  1  0  0  0  0
  5  1  1  0  0  0  0
  6  7  1  0  0  0  0
  8  9  1  0  0  0  0
  8  6  2  0  0  0  0
 10  8  1  0  0  0  0
 11 10  1  0  0  0  0
 12 10  2  0  0  0  0
 12 14  1  0  0  0  0
 13 12  1  0  0  0  0
 14  5  2  0  0  0  0
 15 17  1  0  0  0  0
 15  2  1  0  0  0  0
 16 15  1  0  0  0  0
 17  3  1  0  0  0  0
 18  4  1  0  0  0  0
 18 17  2  0  0  0  0
 19 18  1  0  0  0  0
 20 21  1  0  0  0  0
 20 29  1  0  0  0  0
 21 23  1  0  0  0  0
 22 21  1  0  0  0  0
 23 24  1  0  0  0  0
 23 25  2  0  0  0  0
 25 26  1  0  0  0  0
 27 25  1  0  0  0  0
 27 28  1  0  0  0  0
 29 27  2  0  0  0  0
M  CHG  1   1  -1
M  END
