1,3,4
q = -1.0, confidence = 0.012

 27 28  0  0  1  0  0  0  0  0999 V2000
   -1.2299   -1.1198    0.0046 O   0  5  0  0  0  0  0  0  0  0  0  0
    1.2506    2.9766   -0.0008 O   0  0  0  0  0  0  0  0  0  0  0  0
    2.6656   -0.3005    0.0006 N   0  0  0  0  0  2  0  0  0  0  0  0
    0.3596    0.7949    0.0004 N   0  0  0  0  0  2  0  0  0  0  0  0
   -0.9141    1.1943   -0.0001 N   0  0  0  0  0  0  0  0  0  0  0  0
   -3.8207   -0.8944    0.0029 N   0  0  0  0  0  0  0  0  0  0  0  0
   -3.2010   -1.7253    0.0045 H   0  0  0  0  0  0  0  0  0  0  0  0
    3.8160   -0.9978    0.0020 C   0  0  0  0  0  3  0  0  0  0  0  0
    3.7139   -2.0932    0.0029 H   0  0  0  0  0  0  0  0  0  0  0  0
    5.0606   -0.3543    0.0026 C   0  0  0  0  0  0  0  0  0  0  0  0
    5.9818   -0.9539    0.0036 H   0  0  0  0  0  0  0  0  0  0  0  0
    5.1024    1.0498    0.0020 C   0  0  0  0  0  0  0  0  0  0  0  0
    6.0678    1.5784    0.0024 H   0  0  0  0  0  0  0  0  0  0  0  0
    3.8995    1.7659    0.0010 C   0  0  0  0  0  0  0  0  0  0  0  0
    3.8457    2.8640    0.0008 H   0  0  0  0  0  0  0  0  0  0  0  0
    2.6938    1.0513    0.0003 C   0  0  0  0  0  0  0  0  0  0  0  0
    1.3589    1.7539   -0.0002 C   0  0  0  0  0  0  0  0  0  0  0  0
   -1.6842    0.1121    0.0018 C   0  0  0  0  0  0  0  0  0  0  0  0
   -3.1169    0.2830    0.0012 C   0  0  1  0  0  3  0  0  0  0  0  0
   -3.8398    1.4976   -0.0011 C   0  0  0  0  0  0  0  0  0  0  0  0
   -3.2604    2.4307   -0.0025 H   0  0  0  0  0  0  0  0  0  0  0  0
   -5.2285    1.4603   -0.0015 C   0  0  0  0  0  0  0  0  0  0  0  0
   -5.8032    2.3980   -0.0032 H   0  0  0  0  0  0  0  0  0  0  0  0
   -5.9154    0.2116    0.0004 C   0  0  0  0  0  0  0  0  0  0  0  0
   -7.0121    0.1628    0.0001 H   0  0  0  0  0  0  0  0  0  0  0  0
   -5.1771   -0.9583    0.0026 C   0  0  0  0  0  0  0  0  0  0  0  0
   -5.6230   -1.9625    0.0041 H   0  0  0  0  0  0  0  0  0  0  0  0
  2 17  2  0  0  0  0
  3  8  1  0  0  0  0
  5  4  1  0  0  0  0
  5 18  2  0  0  0  0
  6  7  1  0  0  0  0
  8 10  1  0  0  0  0
  8  9  1  0  0  0  0
 10 11  1  0  0  0  0
 12 13  1  0  0  0  0
 12 10  2  0  0  0  0
 14 12  1  0  0  0  0
 15 14  1  0  0  0  0
 16  3  1  0  0  0  0
 16 14  2  0  0  0  0
 17 16  1  0  0  0  0
 17  4  1  0  0  0  0
 18  1  1  0  0  0  0
 19 18  1  6  0  0  0
 19  6  1  0  0  0  0
 20 19  1  0  0  0  0
 21 20  1  0  0  0  0
 22 20  2  0  0  0  0
 22 24  1  0  0  0  0
 23 22  1  0  0  0  0
 24 26  2  0  0  0  0
 25 24  1  0  0  0  0
 26  6  1  0  0  0  0
 26 27  1  0  0  0  0
M  CHG  1   1  -1
M  END
