1,5,6
q = -1.0, confidence = 0.044

 34 36  0  0  1  0  0  0  0  0999 V2000
   -0.9277   -1.7018   -2.5632 O   0  5  0  0  0  0  0  0  0  0  0  0
   -2.7768   -3.0099   -2.7091 O   0  0  0  0  0  0  0  0  0  0  0  0
   -8.7368    2.3598    1.6004 O   0  0  0  0  0  0  0  0  0  0  0  0
  -10.4381    1.0153    1.8769 O   0  0  0  0  0  0  0  0  0  0  0  0
   -0.6463    1.8368    0.2491 N   0  0  0  0  0  2  0  0  0  0  0  0
   -2.2329   -0.0522   -0.8092 N   0  0  0  0  0  2  0  0  0  0  0  0
   -9.2724    1.2523    1.5681 N   0  0  0  0  0  0  0  0  0  0  0  0
    0.1765    2.8241    0.6222 C   0  0  0  0  0  3  0  0  0  0  0  0
    1.2287    2.7317    0.3063 H   0  0  0  0  0  0  0  0  0  0  0  0
   -0.2545    3.9313    1.3688 C   0  0  0  0  0  0  0  0  0  0  0  0
    0.4566    4.7204    1.6517 H   0  0  0  0  0  0  0  0  0  0  0  0
   -1.6086    4.0022    1.7243 C   0  0  0  0  0  0  0  0  0  0  0  0
   -1.9945    4.8565    2.3004 H   0  0  0  0  0  0  0  0  0  0  0  0
   -2.4734    2.9771    1.3221 C   0  0  0  0  0  0  0  0  0  0  0  0
   -3.5427    3.0303    1.5677 H   0  0  0  0  0  0  0  0  0  0  0  0
   -1.9555    1.8979    0.5766 C   0  0  0  0  0  0  0  0  0  0  0  0
   -2.8125    0.7811    0.0765 C   0  0  1  0  0  3  0  0  0  0  0  0
   -4.1445    0.5783    0.4747 C   0  0  0  0  0  0  0  0  0  0  0  0
   -4.6006    1.2318    1.2297 H   0  0  0  0  0  0  0  0  0  0  0  0
   -4.8881   -0.4961   -0.0672 C   0  0  0  0  0  0  0  0  0  0  0  0
   -4.2386   -1.3391   -0.9905 C   0  0  0  0  0  0  0  0  0  0  0  0
   -4.7216   -2.1947   -1.4828 H   0  0  0  0  0  0  0  0  0  0  0  0
   -2.9009   -1.0890   -1.3317 C   0  0  0  0  0  0  0  0  0  0  0  0
   -2.1449   -2.0278   -2.3020 C   0  0  0  0  0  0  0  0  0  0  0  0
   -6.3002   -0.7252    0.3306 C   0  0  0  0  0  0  0  0  0  0  0  0
   -7.1122    0.3457    0.7562 C   0  0  0  0  0  0  0  0  0  0  0  0
   -6.7496    1.3813    0.7892 H   0  0  0  0  0  0  0  0  0  0  0  0
   -8.4379    0.1028    1.1236 C   0  0  0  0  0  0  0  0  0  0  0  0
   -9.0070   -1.1756    1.0860 C   0  0  0  0  0  0  0  0  0  0  0  0
  -10.0553   -1.3056    1.3851 H   0  0  0  0  0  0  0  0  0  0  0  0
   -8.2013   -2.2414    0.6629 C   0  0  0  0  0  0  0  0  0  0  0  0
   -8.6164   -3.2592    0.6271 H   0  0  0  0  0  0  0  0  0  0  0  0
   -6.8680   -2.0208    0.2893 C   0  0  0  0  0  0  0  0  0  0  0  0
   -6.2483   -2.8729   -0.0248 H   0  0  0  0  0  0  0  0  0  0  0  0
  1 24  1  0  0  0  0
  2 24  2  0  0  0  0
  5 16  1  0  0  0  0
  5  8  1  0  0  0  0
  6 17  1  0  0  0  0
  7  3  2  0  0  0  0
  7  4  2  0  0  0  0
  8 10  1  0  0  0  0
  9  8  1  0  0  0  0
 10 11  1  0  0  0  0
 10 12  2  0  0  0  0
 12 13  1  0  0  0  0
 14 15  1  0  0  0  0
 14 12  1  0  0  0  0
 16 14  2  0  0  0  0
 17 18  1  0  0  0  0
 17 16  1  6  0  0  0
 18 19  1  0  0  0  0
 20 25  1  0  0  0  0
 20 18  2  0  0  0  0
 21 20  1  0  0  0  0
 22 21  1  0  0  0  0
 23 21  2  0  0  0  0
 23  6  1  0  0  0  0
 24 23  1  0  0  0  0
 25 26  1  0  0  0  0
 26 27  1  0  0  0  0
 26 28  2  0  0  0  0
 28  7  1  0  0  0  0
 29 28  1  0  0  0  0
 29 30  1  0  0  0  0
 31 29  2  0  0  0  0
 32 31  1  0  0  0  0
 33 25  2  0  0  0  0
 33 31  1  0  0  0  0
 34 33  1  0  0  0  0
M  CHG  1   1  -1
M  END
