1,2,4
q = -1.0, confidence = 0.022

 29 31  0  0  1  0  0  0  0  0999 V2000
    1.6259    1.4680   -1.4249 O   0  0  0  0  0  1  0  0  0  0  0  0
    1.9484   -1.1624   -1.1211 N   0  0  0  0  0  2  0  0  0  0  0  0
    3.1866   -0.7669   -0.7342 N   0  0  0  0  0  0  0  0  0  0  0  0
    1.1210    0.2880    1.1715 N   0  0  0  0  0  2  0  0  0  0  0  0
    2.4756    0.3066    1.2942 N   0  0  0  0  0  0  0  0  0  0  0  0
    4.6816    0.6259    0.4892 N   0  0  0  0  0  0  0  0  0  0  0  0
    5.3475   -0.3820    1.1141 N   0  0  0  0  0  0  0  0  0  0  0  0
    3.3058    0.4462    0.0828 C   0  0  1  0  0  0  0  0  0  0  0  0
    2.7680    1.6929   -0.7538 C   0  0  0  0  0  0  0  0  0  0  0  0
    2.7293    2.5225    0.0163 H   0  0  0  0  0  0  0  0  0  0  0  0
    3.6054    1.9332   -1.4640 H   0  0  0  0  0  0  0  0  0  0  0  0
    2.1101   -2.1879   -1.9674 C   0  0  0  0  0  3  0  0  0  0  0  0
    1.2177   -2.6416   -2.4111 H   0  0  0  0  0  0  0  0  0  0  0  0
    3.4873   -2.4517   -2.1402 C   0  0  0  0  0  0  0  0  0  0  0  0
    3.9472   -3.2266   -2.7608 H   0  0  0  0  0  0  0  0  0  0  0  0
    4.1505   -1.5202   -1.3462 C   0  0  0  0  0  0  0  0  0  0  0  0
    5.2106   -1.3612   -1.1376 H   0  0  0  0  0  0  0  0  0  0  0  0
    2.8481    0.3921    2.6093 C   0  0  0  0  0  3  0  0  0  0  0  0
    3.9011    0.4048    2.9002 H   0  0  0  0  0  0  0  0  0  0  0  0
    1.6759    0.4119    3.3580 C   0  0  0  0  0  0  0  0  0  0  0  0
    1.5962    0.4610    4.4481 H   0  0  0  0  0  0  0  0  0  0  0  0
    0.6232    0.3411    2.4203 C   0  0  0  0  0  0  0  0  0  0  0  0
   -0.4629    0.3066    2.5522 H   0  0  0  0  0  0  0  0  0  0  0  0
    6.5359    0.1406    1.4305 C   0  0  0  0  0  0  0  0  0  0  0  0
    7.2813   -0.4836    1.9401 H   0  0  0  0  0  0  0  0  0  0  0  0
    6.6417    1.4998    1.0267 C   0  0  0  0  0  0  0  0  0  0  0  0
    7.4889    2.1821    1.1490 H   0  0  0  0  0  0  0  0  0  0  0  0
    5.4244    1.7832    0.4262 C   0  0  0  0  0  0  0  0  0  0  0  0
    5.0381    2.6996   -0.0270 H   0  0  0  0  0  0  0  0  0  0  0  0
  1  9  1  0  0  0  0
  2  3  1  0  0  0  0
  3  8  1  0  0  0  0
  4  5  1  0  0  0  0
  4 22  1  0  0  0  0
  5 18  1  0  0  0  0
  6  7  1  0  0  0  0
  7 24  2  0  0  0  0
  8  9  1  6  0  0  0
  8  6  1  0  0  0  0
  8  5  1  0  0  0  0
  9 10  1  0  0  0  0
 11  9  1  0  0  0  0
 12  2  1  0  0  0  0
 13 12  1  0  0  0  0
 14 12  1  0  0  0  0
 14 16  2  0  0  0  0
 15 14  1  0  0  0  0
 16 17  1  0  0  0  0
 16  3  1  0  0  0  0
 18 19  1  0  0  0  0
 18 20  1  0  0  0  0
 20 21  1  0  0  0  0
 22 23  1  0  0  0  0
 22 20  2  0  0  0  0
 24 25  1  0  0  0  0
 26 27  1  0  0  0  0
 26 24  1  0  0  0  0
 28  6  1  0  0  0  0
 28 26  2  0  0  0  0
 29 28  1  0  0  0  0
M  END
