1,2,3
q = -1.0, confidence = 0.0

 33 33  0  0  0  0  0  0  0  0999 V2000
    0.4033   -1.5085    0.6571 N   0  0  0  0  0  2  0  0  0  0  0  0
   -2.0947   -1.1444   -0.2660 N   0  0  0  0  0  0  0  0  0  0  0  0
    1.3937    0.8542   -0.1976 O   0  5  0  0  0  0  0  0  0  0  0  0
   -4.4056    0.3049    0.1723 O   0  0  0  0  0  0  0  0  0  0  0  0
   -3.9138    1.0992   -0.1685 H   0  0  0  0  0  0  0  0  0  0  0  0
    2.7821   -0.9971    0.4458 C   0  0  0  0  0  0  0  0  0  0  0  0
    2.5894    0.3362   -0.0539 C   0  0  0  0  0  0  0  0  0  0  0  0
    3.7301    1.1441   -0.3626 C   0  0  0  0  0  0  0  0  0  0  0  0
    5.0035    0.5963   -0.1846 C   0  0  0  0  0  0  0  0  0  0  0  0
    5.8796    1.2157   -0.4361 H   0  0  0  0  0  0  0  0  0  0  0  0
    5.2023   -0.7161    0.3065 C   0  0  0  0  0  0  0  0  0  0  0  0
    6.2218   -1.1067    0.4358 H   0  0  0  0  0  0  0  0  0  0  0  0
    4.1005   -1.4978    0.6278 C   0  0  0  0  0  0  0  0  0  0  0  0
    4.2313   -2.5176    1.0235 H   0  0  0  0  0  0  0  0  0  0  0  0
    3.4972    2.5372   -0.8729 C   0  0  0  0  0  0  0  0  0  0  0  0
    2.9125    3.1327   -0.1413 H   0  0  0  0  0  0  0  0  0  0  0  0
    2.8901    2.5211   -1.8017 H   0  0  0  0  0  0  0  0  0  0  0  0
    4.4508    3.0593   -1.0779 H   0  0  0  0  0  0  0  0  0  0  0  0
    1.6604   -1.7967    0.8511 C   0  0  0  0  0  3  0  0  0  0  0  0
    1.8990   -2.7337    1.3995 H   0  0  0  0  0  0  0  0  0  0  0  0
   -0.6411   -2.3518    1.2180 C   0  0  0  0  0  0  0  0  0  0  0  0
   -1.0594   -1.8322    2.1092 H   0  0  0  0  0  0  0  0  0  0  0  0
   -0.2475   -3.3385    1.5465 H   0  0  0  0  0  0  0  0  0  0  0  0
   -1.7318   -2.5008    0.1626 C   0  0  0  0  0  0  0  0  0  0  0  0
   -1.3359   -3.0471   -0.7179 H   0  0  0  0  0  0  0  0  0  0  0  0
   -2.6026   -3.0658    0.5638 H   0  0  0  0  0  0  0  0  0  0  0  0
   -3.0695   -1.0325   -1.3782 C   0  0  0  0  0  0  0  0  0  0  0  0
   -3.0822   -1.9713   -1.9671 H   0  0  0  0  0  0  0  0  0  0  0  0
   -2.7217   -0.2247   -2.0509 H   0  0  0  0  0  0  0  0  0  0  0  0
   -4.4636   -0.6910   -0.8279 C   0  0  0  0  0  0  0  0  0  0  0  0
   -5.1202   -0.4088   -1.6856 H   0  0  0  0  0  0  0  0  0  0  0  0
   -4.9246   -1.5828   -0.3491 H   0  0  0  0  0  0  0  0  0  0  0  0
   -2.5231   -0.6390    0.5328 H   0  0  0  0  0  0  0  0  0  0  0  0
  1 19  1  0  0  0  0
  1 21  1  0  0  0  0
  2 24  1  0  0  0  0
  2 33  1  0  0  0  0
  3  7  1  0  0  0  0
  5  4  1  0  0  0  0
  6 13  1  0  0  0  0
  6 19  1  0  0  0  0
  7  6  2  0  0  0  0
  8  9  2  0  0  0  0
  8  7  1  0  0  0  0
  9 11  1  0  0  0  0
 10  9  1  0  0  0  0
 11 12  1  0  0  0  0
 11 13  2  0  0  0  0
 13 14  1  0  0  0  0
 15  8  1  0  0  0  0
 15 16  1  0  0  0  0
 17 15  1  0  0  0  0
 18 15  1  0  0  0  0
 19 20  1  0  0  0  0
 21 23  1  0  0  0  0
 21 22  1  0  0  0  0
 24 26  1  0  0  0  0
 24 21  1  0  0  0  0
 25 24  1  0  0  0  0
 27 30  1  0  0  0  0
 27  2  1  0  0  0  0
 28 27  1  0  0  0  0
 29 27  1  0  0  0  0
 30 32  1  0  0  0  0
 30  4  1  0  0  0  0
 31 30  1  0  0  0  0
M  CHG  1   3  -1
M  END
