1,3,4
q = -1.0, confidence = 0.018

 29 30  0  0  0  0  0  0  0  0999 V2000
    1.3183    0.5483    0.4392 O   0  5  0  0  0  0  0  0  0  0  0  0
    2.0340    0.0107   -1.6989 N   0  0  0  0  0  0  0  0  0  0  0  0
    0.9820   -0.8136   -1.5849 N   0  0  0  0  0  2  0  0  0  0  0  0
   -1.0338   -2.1655   -0.9544 N   0  0  0  0  0  2  0  0  0  0  0  0
    3.2191    1.7009   -0.4241 C   0  0  0  0  0  0  0  0  0  0  0  0
    6.3435    4.5135   -0.0161 N   0  0  0  0  0  0  0  0  0  0  0  0
    6.2681    5.2127    0.7215 H   0  0  0  0  0  0  0  0  0  0  0  0
    3.3613    2.4562    0.7613 C   0  0  0  0  0  0  0  0  0  0  0  0
    2.6423    2.2870    1.5758 H   0  0  0  0  0  0  0  0  0  0  0  0
    4.1368    1.9194   -1.4774 C   0  0  0  0  0  0  0  0  0  0  0  0
    4.0200    1.3335   -2.4001 H   0  0  0  0  0  0  0  0  0  0  0  0
    2.1339    0.7146   -0.5452 C   0  0  0  0  0  0  0  0  0  0  0  0
    5.3057    3.6155   -0.1603 C   0  0  0  0  0  0  0  0  0  0  0  0
    4.3819    3.3952    0.8947 C   0  0  0  0  0  0  0  0  0  0  0  0
    4.4790    3.9758    1.8260 H   0  0  0  0  0  0  0  0  0  0  0  0
    5.1602    2.8562   -1.3511 C   0  0  0  0  0  0  0  0  0  0  0  0
    5.8678    3.0142   -2.1806 H   0  0  0  0  0  0  0  0  0  0  0  0
   -2.1288   -2.8219   -0.5237 C   0  0  0  0  0  3  0  0  0  0  0  0
   -2.4723   -2.5697    0.4907 H   0  0  0  0  0  0  0  0  0  0  0  0
   -0.5508   -2.4106   -2.2311 C   0  0  0  0  0  0  0  0  0  0  0  0
   -2.8036   -3.7617   -1.3121 C   0  0  0  0  0  0  0  0  0  0  0  0
   -3.6940   -4.2660   -0.9120 H   0  0  0  0  0  0  0  0  0  0  0  0
    0.6009   -1.6272   -2.5679 C   0  0  0  0  0  3  0  0  0  0  0  0
    1.1278   -1.6589   -3.5329 H   0  0  0  0  0  0  0  0  0  0  0  0
   -2.3206   -4.0328   -2.6055 C   0  0  0  0  0  0  0  0  0  0  0  0
   -2.8272   -4.7672   -3.2495 H   0  0  0  0  0  0  0  0  0  0  0  0
   -1.1901   -3.3532   -3.0666 C   0  0  0  0  0  0  0  0  0  0  0  0
   -0.7862   -3.5318   -4.0734 H   0  0  0  0  0  0  0  0  0  0  0  0
    6.8158    4.8341   -0.8604 H   0  0  0  0  0  0  0  0  0  0  0  0
  2  3  1  0  0  0  0
  2 12  2  0  0  0  0
  4 18  1  0  0  0  0
  5  8  1  0  0  0  0
  6  7  1  0  0  0  0
  8 14  2  0  0  0  0
  8  9  1  0  0  0  0
 10 16  1  0  0  0  0
 10  5  2  0  0  0  0
 11 10  1  0  0  0  0
 12  5  1  0  0  0  0
 12  1  1  0  0  0  0
 13  6  1  0  0  0  0
 13 14  1  0  0  0  0
 14 15  1  0  0  0  0
 16 13  2  0  0  0  0
 17 16  1  0  0  0  0
 18 19  1  0  0  0  0
 20  4  1  0  0  0  0
 21 22  1  0  0  0  0
 21 18  1  0  0  0  0
 23 20  1  0  0  0  0
 23  3  1  0  0  0  0
 24 23  1  0  0  0  0
 25 21  2  0  0  0  0
 26 25  1  0  0  0  0
 27 25  1  0  0  0  0
 27 20  2  0  0  0  0
 28 27  1  0  0  0  0
 29  6  1  0  0  0  0
M  CHG  1   1  -1
M  END
