1,2,3
q = -1.0, confidence = 0.058

 29 30  0  0  0  0  0  0  0  0999 V2000
    1.9570   -1.1605   -0.3481 O   0  0  0  0  0  1  0  0  0  0  0  0
   -1.8628    0.0909    0.0404 N   0  0  0  0  0  2  0  0  0  0  0  0
    0.5890    1.0540   -0.0249 N   0  0  0  0  0  2  0  0  0  0  0  0
   -3.0586   -0.5215    0.0967 C   0  0  0  0  0  0  0  0  0  0  0  0
   -4.2463    0.2207    0.1304 C   0  0  0  0  0  0  0  0  0  0  0  0
   -4.1730    1.6204    0.1033 C   0  0  0  0  0  0  0  0  0  0  0  0
   -2.9192    2.2472    0.0440 C   0  0  0  0  0  0  0  0  0  0  0  0
   -1.7565    1.4647    0.0129 C   0  0  0  0  0  0  0  0  0  0  0  0
   -0.3797    2.0074   -0.0425 C   0  0  0  0  0  0  0  0  0  0  0  0
    0.0310    3.3461   -0.0998 C   0  0  0  0  0  0  0  0  0  0  0  0
    1.4110    3.6233   -0.1408 C   0  0  0  0  0  0  0  0  0  0  0  0
    2.3647    2.5926   -0.1047 C   0  0  0  0  0  0  0  0  0  0  0  0
    1.9227    1.2601   -0.0415 C   0  0  0  0  0  0  0  0  0  0  0  0
    2.7289   -0.0316    0.1084 C   0  0  0  0  0  0  0  0  0  0  0  0
    3.9927   -0.0447   -0.7586 C   0  0  0  0  0  0  0  0  0  0  0  0
    3.0629   -0.1884    1.6090 C   0  0  0  0  0  0  0  0  0  0  0  0
   -3.0270   -1.6239    0.1098 H   0  0  0  0  0  0  0  0  0  0  0  0
   -5.2107   -0.3044    0.1760 H   0  0  0  0  0  0  0  0  0  0  0  0
   -5.0896    2.2278    0.1282 H   0  0  0  0  0  0  0  0  0  0  0  0
   -2.8437    3.3430    0.0233 H   0  0  0  0  0  0  0  0  0  0  0  0
   -0.7031    4.1628   -0.1140 H   0  0  0  0  0  0  0  0  0  0  0  0
    1.7458    4.6697   -0.1977 H   0  0  0  0  0  0  0  0  0  0  0  0
    3.4405    2.8160   -0.1278 H   0  0  0  0  0  0  0  0  0  0  0  0
    3.7418    0.1221   -1.8229 H   0  0  0  0  0  0  0  0  0  0  0  0
    4.7173    0.7224   -0.4199 H   0  0  0  0  0  0  0  0  0  0  0  0
    4.4739   -1.0365   -0.6635 H   0  0  0  0  0  0  0  0  0  0  0  0
    2.1355   -0.2217    2.2159 H   0  0  0  0  0  0  0  0  0  0  0  0
    3.5995   -1.1469    1.7446 H   0  0  0  0  0  0  0  0  0  0  0  0
    3.6999    0.6375    1.9822 H   0  0  0  0  0  0  0  0  0  0  0  0
  1 14  1  0  0  0  0
  2  4  1  0  0  0  0
  4 17  1  0  0  0  0
  4  5  2  0  0  0  0
  5 18  1  0  0  0  0
  6 19  1  0  0  0  0
  6  5  1  0  0  0  0
  7  6  2  0  0  0  0
  8  2  1  0  0  0  0
  8  7  1  0  0  0  0
  9  3  1  0  0  0  0
  9  8  2  0  0  0  0
 10  9  1  0  0  0  0
 11 12  1  0  0  0  0
 11 10  2  0  0  0  0
 12 13  2  0  0  0  0
 13  3  1  0  0  0  0
 13 14  1  0  0  0  0
 14 16  1  0  0  0  0
 15 26  1  0  0  0  0
 15 25  1  0  0  0  0
 15 14  1  0  0  0  0
 16 28  1  0  0  0  0
 16 29  1  0  0  0  0
 16 27  1  0  0  0  0
 20  7  1  0  0  0  0
 21 10  1  0  0  0  0
 22 11  1  0  0  0  0
 23 12  1  0  0  0  0
 24 15  1  0  0  0  0
M  END
