2,3,5
q = -2.0, confidence = 0.858

 38 39  0  0  1  0  0  0  0  0999 V2000
    3.3498    1.8818   -0.0426 S   0  0  0  0  0  0  0  0  0  0  0  0
   -1.6234   -1.7779    0.1771 O   0  5  0  0  0  0  0  0  0  0  0  0
   -0.2570    0.5765    0.0088 N   0  0  0  0  0  2  0  0  0  0  0  0
    0.7767    1.4680    0.0691 N   0  0  0  0  0  2  0  0  0  0  0  0
    1.9963   -0.5275    0.0169 N   0  0  0  0  0  2  0  0  0  0  0  0
    2.9110   -0.9602   -0.1323 H   0  0  0  0  0  0  0  0  0  0  0  0
   -2.7335   -1.0470    0.1201 C   0  0  0  0  0  0  0  0  0  0  0  0
   -3.9686   -1.7557    0.1552 C   0  0  0  0  0  0  0  0  0  0  0  0
   -3.9226   -2.8523    0.2100 H   0  0  0  0  0  0  0  0  0  0  0  0
   -5.1672   -1.0732    0.1250 C   0  0  0  0  0  0  0  0  0  0  0  0
   -6.1180   -1.6276    0.1545 H   0  0  0  0  0  0  0  0  0  0  0  0
   -5.2085    0.3524    0.0550 C   0  0  0  0  0  0  0  0  0  0  0  0
   -3.9719    1.0932    0.0172 C   0  0  0  0  0  0  0  0  0  0  0  0
   -2.7089    0.3715    0.0566 C   0  0  0  0  0  0  0  0  0  0  0  0
   -1.4680    1.0939    0.0643 C   0  0  0  0  0  3  0  0  0  0  0  0
   -1.4867    2.1949    0.1238 H   0  0  0  0  0  0  0  0  0  0  0  0
    1.9304    0.8302    0.0076 C   0  0  2  0  0  3  0  0  0  0  0  0
    4.7289    0.6755   -0.0087 C   0  0  0  0  0  0  0  0  0  0  0  0
    4.6320    0.0354    0.8942 H   0  0  0  0  0  0  0  0  0  0  0  0
    4.6702    0.0278   -0.9099 H   0  0  0  0  0  0  0  0  0  0  0  0
    6.0593    1.4295    0.0117 C   0  0  0  0  0  0  0  0  0  0  0  0
    6.1174    2.0961   -0.8764 H   0  0  0  0  0  0  0  0  0  0  0  0
    6.0900    2.0964    0.9010 H   0  0  0  0  0  0  0  0  0  0  0  0
    7.2675    0.4861    0.0291 C   0  0  0  0  0  0  0  0  0  0  0  0
    7.1952   -0.1836    0.9146 H   0  0  0  0  0  0  0  0  0  0  0  0
    7.2220   -0.1818   -0.8594 H   0  0  0  0  0  0  0  0  0  0  0  0
    8.6037    1.2289    0.0500 C   0  0  0  0  0  0  0  0  0  0  0  0
    8.6903    1.8780    0.9460 H   0  0  0  0  0  0  0  0  0  0  0  0
    8.7170    1.8794   -0.8418 H   0  0  0  0  0  0  0  0  0  0  0  0
    9.4597    0.5253    0.0622 H   0  0  0  0  0  0  0  0  0  0  0  0
   -6.4517    1.0447    0.0179 C   0  0  0  0  0  0  0  0  0  0  0  0
   -7.3802    0.4534    0.0488 H   0  0  0  0  0  0  0  0  0  0  0  0
   -6.4992    2.4288   -0.0577 C   0  0  0  0  0  0  0  0  0  0  0  0
   -7.4655    2.9536   -0.0862 H   0  0  0  0  0  0  0  0  0  0  0  0
   -5.2887    3.1626   -0.1016 C   0  0  0  0  0  0  0  0  0  0  0  0
   -5.3167    4.2609   -0.1666 H   0  0  0  0  0  0  0  0  0  0  0  0
   -4.0605    2.5123   -0.0666 C   0  0  0  0  0  0  0  0  0  0  0  0
   -3.1476    3.1210   -0.1115 H   0  0  0  0  0  0  0  0  0  0  0  0
  1 18  1  0  0  0  0
  3 15  1  0  0  0  0
  3  4  1  0  0  0  0
  6  5  1  0  0  0  0
  7  8  1  0  0  0  0
  7  2  1  0  0  0  0
  8  9  1  0  0  0  0
 10 11  1  0  0  0  0
 10  8  2  0  0  0  0
 12 10  1  0  0  0  0
 13 12  2  0  0  0  0
 13 14  1  0  0  0  0
 14 15  1  0  0  0  0
 14  7  2  0  0  0  0
 15 16  1  0  0  0  0
 17  1  1  1  0  0  0
 17  5  1  0  0  0  0
 17  4  1  0  0  0  0
 18 21  1  0  0  0  0
 18 19  1  0  0  0  0
 20 18  1  0  0  0  0
 21 24  1  0  0  0  0
 21 23  1  0  0  0  0
 22 21  1  0  0  0  0
 24 27  1  0  0  0  0
 24 25  1  0  0  0  0
 26 24  1  0  0  0  0
 27 30  1  0  0  0  0
 27 28  1  0  0  0  0
 29 27  1  0  0  0  0
 31 32  1  0  0  0  0
 31 12  1  0  0  0  0
 33 31  2  0  0  0  0
 34 33  1  0  0  0  0
 35 37  2  0  0  0  0
 35 33  1  0  0  0  0
 36 35  1  0  0  0  0
 37 13  1  0  0  0  0
 38 37  1  0  0  0  0
M  CHG  1   2  -1
M  END
