1,2,4
 OpenBabel05122313063D

 38 40  0  0  1  0  0  0  0  0999 V2000
   -2.1569    0.8851    0.7496 O   0  5  0  0  0  0  0  0  0  0  0  0
   -0.1926   -1.0617   -0.0384 N   0  0  0  0  0  2  0  0  0  0  0  0
    1.8125    0.7812   -0.7718 N   0  0  0  0  0  0  0  0  0  0  0  0
    0.9188    1.4723   -0.0126 N   0  0  0  0  0  2  0  0  0  0  0  0
   -2.9513    0.1304    0.0628 C   0  0  0  0  0  0  0  0  0  0  0  0
   -4.3221    0.5324   -0.0924 C   0  0  0  0  0  0  0  0  0  0  0  0
   -4.6107    1.4764    0.3931 H   0  0  0  0  0  0  0  0  0  0  0  0
   -5.2440   -0.2326   -0.7913 C   0  0  0  0  0  0  0  0  0  0  0  0
   -6.2875    0.1136   -0.8646 H   0  0  0  0  0  0  0  0  0  0  0  0
   -4.8665   -1.4515   -1.4137 C   0  0  0  0  0  0  0  0  0  0  0  0
   -5.6044   -2.0487   -1.9682 H   0  0  0  0  0  0  0  0  0  0  0  0
   -3.5468   -1.8636   -1.3183 C   0  0  0  0  0  0  0  0  0  0  0  0
   -3.2230   -2.7957   -1.8111 H   0  0  0  0  0  0  0  0  0  0  0  0
   -2.5663   -1.1164   -0.5975 C   0  0  0  0  0  0  0  0  0  0  0  0
   -1.2174   -1.5949   -0.6561 C   0  0  0  0  0  3  0  0  0  0  0  0
   -1.0360   -2.4644   -1.3289 H   0  0  0  0  0  0  0  0  0  0  0  0
    1.1170   -1.5204   -0.1922 C   0  0  0  0  0  0  0  0  0  0  0  0
    1.4833   -2.8684    0.0058 C   0  0  0  0  0  0  0  0  0  0  0  0
    0.6901   -3.5930    0.2423 H   0  0  0  0  0  0  0  0  0  0  0  0
    2.8247   -3.2683   -0.0496 C   0  0  0  0  0  0  0  0  0  0  0  0
    3.0855   -4.3237    0.1201 H   0  0  0  0  0  0  0  0  0  0  0  0
    3.8330   -2.3219   -0.2884 C   0  0  0  0  0  0  0  0  0  0  0  0
    4.8901   -2.6241   -0.3018 H   0  0  0  0  0  0  0  0  0  0  0  0
    3.4910   -0.9773   -0.4905 C   0  0  0  0  0  0  0  0  0  0  0  0
    4.2734   -0.2244   -0.6568 H   0  0  0  0  0  0  0  0  0  0  0  0
    2.1477   -0.5707   -0.4659 C   0  0  0  0  0  0  0  0  0  0  0  0
    3.1450    1.0249   -2.9196 C   0  0  0  0  0  0  0  0  0  0  0  0
    2.9901    1.6033   -3.8495 H   0  0  0  0  0  0  0  0  0  0  0  0
    2.9774   -0.0477   -3.1407 H   0  0  0  0  0  0  0  0  0  0  0  0
    4.2110    1.1392   -2.6319 H   0  0  0  0  0  0  0  0  0  0  0  0
    2.2129    1.5228   -1.8645 C   0  0  1  0  0  3  0  0  0  0  0  0
    1.5416    2.7422   -1.7680 C   0  0  0  0  0  0  0  0  0  0  0  0
    1.6100    3.5773   -2.4729 H   0  0  0  0  0  0  0  0  0  0  0  0
    0.7401    2.6642   -0.6013 C   0  0  0  0  0  0  0  0  0  0  0  0
   -0.2173    3.6563   -0.0224 C   0  0  0  0  0  0  0  0  0  0  0  0
   -1.1810    3.1589    0.2136 H   0  0  0  0  0  0  0  0  0  0  0  0
   -0.4031    4.4846   -0.7308 H   0  0  0  0  0  0  0  0  0  0  0  0
    0.1754    4.0911    0.9201 H   0  0  0  0  0  0  0  0  0  0  0  0
  3 26  1  0  0  0  0
  3  4  1  0  0  0  0
  5  1  1  0  0  0  0
  6  5  1  0  0  0  0
  6  7  1  0  0  0  0
  8  6  2  0  0  0  0
  9  8  1  0  0  0  0
 10 12  2  0  0  0  0
 10  8  1  0  0  0  0
 11 10  1  0  0  0  0
 12 14  1  0  0  0  0
 13 12  1  0  0  0  0
 14  5  2  0  0  0  0
 15 14  1  0  0  0  0
 15  2  1  0  0  0  0
 16 15  1  0  0  0  0
 17  2  1  0  0  0  0
 17 18  1  0  0  0  0
 18 19  1  0  0  0  0
 20 18  2  0  0  0  0
 20 21  1  0  0  0  0
 22 20  1  0  0  0  0
 23 22  1  0  0  0  0
 24 26  1  0  0  0  0
 24 22  2  0  0  0  0
 25 24  1  0  0  0  0
 26 17  2  0  0  0  0
 27 30  1  0  0  0  0
 28 27  1  0  0  0  0
 29 27  1  0  0  0  0
 31 27  1  6  0  0  0
 31 32  1  0  0  0  0
 31  3  1  0  0  0  0
 32 34  2  0  0  0  0
 33 32  1  0  0  0  0
 34 35  1  0  0  0  0
 34  4  1  0  0  0  0
 35 36  1  0  0  0  0
 35 38  1  0  0  0  0
 37 35  1  0  0  0  0
M  CHG  1   1  -1
M  END
