1,2,6
 OpenBabel05122313063D

 30 31  0  0  1  0  0  0  0  0999 V2000
   -1.3463   -1.2232    1.7489 N   0  0  0  0  0  2  0  0  0  0  0  0
    1.1263   -0.3818    1.7277 N   0  0  0  0  0  2  0  0  0  0  0  0
    2.3405    0.0891    1.4328 N   0  0  0  0  0  0  0  0  0  0  0  0
    3.0047    0.3746    2.1613 H   0  0  0  0  0  0  0  0  0  0  0  0
    6.5089    1.7615   -1.0181 N   0  0  0  0  0  0  0  0  0  0  0  0
    1.8608   -0.2114   -0.7742 O   0  0  0  0  0  1  0  0  0  0  0  0
   -2.6090   -1.6625    1.6851 C   0  0  0  0  0  3  0  0  0  0  0  0
   -3.0210   -1.8131    0.6734 H   0  0  0  0  0  0  0  0  0  0  0  0
   -3.3774   -1.9109    2.8340 C   0  0  0  0  0  0  0  0  0  0  0  0
   -4.4118   -2.2701    2.7400 H   0  0  0  0  0  0  0  0  0  0  0  0
   -2.7928   -1.6839    4.0862 C   0  0  0  0  0  0  0  0  0  0  0  0
   -3.3607   -1.8638    5.0109 H   0  0  0  0  0  0  0  0  0  0  0  0
   -1.4707   -1.2183    4.1517 C   0  0  0  0  0  0  0  0  0  0  0  0
   -0.9988   -1.0318    5.1257 H   0  0  0  0  0  0  0  0  0  0  0  0
   -0.7676   -0.9947    2.9540 C   0  0  0  0  0  0  0  0  0  0  0  0
    0.6307   -0.4862    2.9256 C   0  0  2  0  0  3  0  0  0  0  0  0
    1.3341   -0.1218    4.1973 C   0  0  0  0  0  0  0  0  0  0  0  0
    2.3475    0.2895    4.0349 H   0  0  0  0  0  0  0  0  0  0  0  0
    1.4368   -1.0060    4.8595 H   0  0  0  0  0  0  0  0  0  0  0  0
    0.7544    0.6403    4.7570 H   0  0  0  0  0  0  0  0  0  0  0  0
    2.6637    0.1840    0.0809 C   0  0  2  0  0  3  0  0  0  0  0  0
    3.9967    0.7461   -0.2527 C   0  0  0  0  0  0  0  0  0  0  0  0
    4.4982    0.5278   -1.5505 C   0  0  0  0  0  0  0  0  0  0  0  0
    3.9050   -0.0438   -2.2782 H   0  0  0  0  0  0  0  0  0  0  0  0
    5.7580    1.0522   -1.8757 C   0  0  0  0  0  0  0  0  0  0  0  0
    6.1811    0.8910   -2.8823 H   0  0  0  0  0  0  0  0  0  0  0  0
    6.0203    1.9837    0.2106 C   0  0  0  0  0  0  0  0  0  0  0  0
    6.6484    2.5852    0.8907 H   0  0  0  0  0  0  0  0  0  0  0  0
    4.7759    1.5017    0.6474 C   0  0  0  0  0  0  0  0  0  0  0  0
    4.4302    1.7607    1.6607 H   0  0  0  0  0  0  0  0  0  0  0  0
  1 15  1  0  0  0  0
  3  2  1  0  0  0  0
  3  4  1  0  0  0  0
  5 27  1  0  0  0  0
  7  1  1  0  0  0  0
  7  9  1  0  0  0  0
  8  7  1  0  0  0  0
  9 11  2  0  0  0  0
 10  9  1  0  0  0  0
 11 13  1  0  0  0  0
 11 12  1  0  0  0  0
 13 14  1  0  0  0  0
 15 13  2  0  0  0  0
 16  2  1  6  0  0  0
 16 15  1  0  0  0  0
 16 17  1  0  0  0  0
 17 20  1  0  0  0  0
 17 19  1  0  0  0  0
 18 17  1  0  0  0  0
 21  6  1  1  0  0  0
 21  3  1  0  0  0  0
 22 21  1  0  0  0  0
 22 29  1  0  0  0  0
 23 22  2  0  0  0  0
 24 23  1  0  0  0  0
 25 23  1  0  0  0  0
 25  5  2  0  0  0  0
 26 25  1  0  0  0  0
 27 29  2  0  0  0  0
 27 28  1  0  0  0  0
 29 30  1  0  0  0  0
M  END
