1,3,5
 OpenBabel05122313063D

 40 42  0  0  1  0  0  0  0  0999 V2000
   -0.6102   -1.1395    1.2458 O   0  5  0  0  0  0  0  0  0  0  0  0
   -2.0613   -2.7254    0.5881 O   0  0  0  0  0  0  0  0  0  0  0  0
   -1.1823    1.3560    0.2407 N   0  0  0  0  0  2  0  0  0  0  0  0
   -2.3624    0.8753    0.0667 N   0  0  0  0  0  2  0  0  0  0  0  0
    1.3516    2.2969    0.1264 N   0  0  0  0  0  2  0  0  0  0  0  0
   -4.4846   -2.0574   -0.1053 N   0  0  0  0  0  0  0  0  0  0  0  0
   -3.7713   -2.7592    0.1687 H   0  0  0  0  0  0  0  0  0  0  0  0
   -2.6617   -0.4364    0.2269 C   0  0  0  0  0  0  0  0  0  0  0  0
   -1.6987   -1.4287    0.7269 C   0  0  0  0  0  0  0  0  0  0  0  0
   -1.0295   -3.7537    0.8411 C   0  0  0  0  0  0  0  0  0  0  0  0
   -1.6142   -4.6355    1.1630 H   0  0  0  0  0  0  0  0  0  0  0  0
   -0.3927   -3.4006    1.6724 H   0  0  0  0  0  0  0  0  0  0  0  0
   -0.2180   -4.0041   -0.4123 C   0  0  0  0  0  0  0  0  0  0  0  0
   -0.8559   -4.3382   -1.2540 H   0  0  0  0  0  0  0  0  0  0  0  0
    0.5267   -4.7971   -0.2021 H   0  0  0  0  0  0  0  0  0  0  0  0
    0.3490   -3.1010   -0.7064 H   0  0  0  0  0  0  0  0  0  0  0  0
   -1.0200    2.7342    0.0058 C   0  0  0  0  0  0  0  0  0  0  0  0
   -2.0570    3.6550   -0.1629 C   0  0  0  0  0  0  0  0  0  0  0  0
   -3.0934    3.2980   -0.0971 H   0  0  0  0  0  0  0  0  0  0  0  0
   -1.7780    5.0199   -0.4063 C   0  0  0  0  0  0  0  0  0  0  0  0
   -2.6151    5.7225   -0.5307 H   0  0  0  0  0  0  0  0  0  0  0  0
   -0.4696    5.4835   -0.4923 C   0  0  0  0  0  3  0  0  0  0  0  0
   -0.2603    6.5448   -0.6916 H   0  0  0  0  0  0  0  0  0  0  0  0
    0.6187    4.5816   -0.3216 C   0  0  0  0  0  0  0  0  0  0  0  0
    1.9885    4.9628   -0.4105 C   0  0  0  0  0  0  0  0  0  0  0  0
    2.2398    6.0151   -0.6142 H   0  0  0  0  0  0  0  0  0  0  0  0
    2.9884    4.0137   -0.2492 C   0  0  0  0  0  0  0  0  0  0  0  0
    4.0510    4.2833   -0.3240 H   0  0  0  0  0  0  0  0  0  0  0  0
    2.6267    2.6732    0.0256 C   0  0  0  0  0  0  0  0  0  0  0  0
    3.3807    1.8789    0.1653 H   0  0  0  0  0  0  0  0  0  0  0  0
    0.3418    3.1997   -0.0547 C   0  0  0  0  0  0  0  0  0  0  0  0
   -4.0350   -0.7633   -0.1414 C   0  0  2  0  0  3  0  0  0  0  0  0
   -4.9778    0.2174   -0.5502 C   0  0  0  0  0  0  0  0  0  0  0  0
   -4.6358    1.2576   -0.5960 H   0  0  0  0  0  0  0  0  0  0  0  0
   -6.2781   -0.1467   -0.8757 C   0  0  0  0  0  0  0  0  0  0  0  0
   -6.9971    0.6261   -1.1861 H   0  0  0  0  0  0  0  0  0  0  0  0
   -6.6849   -1.5021   -0.8134 C   0  0  0  0  0  0  0  0  0  0  0  0
   -7.7061   -1.8136   -1.0686 H   0  0  0  0  0  0  0  0  0  0  0  0
   -5.7490   -2.4417   -0.4221 C   0  0  0  0  0  0  0  0  0  0  0  0
   -5.9594   -3.5178   -0.3480 H   0  0  0  0  0  0  0  0  0  0  0  0
  2  9  1  0  0  0  0
  2 10  1  0  0  0  0
  4  8  1  0  0  0  0
  4  3  1  0  0  0  0
  6  7  1  0  0  0  0
  8  9  2  0  0  0  0
  9  1  1  0  0  0  0
 10 11  1  0  0  0  0
 10 12  1  0  0  0  0
 13 15  1  0  0  0  0
 13 10  1  0  0  0  0
 14 13  1  0  0  0  0
 16 13  1  0  0  0  0
 17  3  1  0  0  0  0
 18 19  1  0  0  0  0
 18 17  1  0  0  0  0
 20 18  2  0  0  0  0
 21 20  1  0  0  0  0
 22 20  1  0  0  0  0
 22 24  1  0  0  0  0
 23 22  1  0  0  0  0
 24 31  1  0  0  0  0
 25 24  2  0  0  0  0
 25 27  1  0  0  0  0
 26 25  1  0  0  0  0
 27 29  2  0  0  0  0
 28 27  1  0  0  0  0
 29  5  1  0  0  0  0
 29 30  1  0  0  0  0
 31 17  2  0  0  0  0
 31  5  1  0  0  0  0
 32  6  1  0  0  0  0
 32  8  1  1  0  0  0
 33 32  1  0  0  0  0
 34 33  1  0  0  0  0
 35 37  1  0  0  0  0
 35 33  2  0  0  0  0
 36 35  1  0  0  0  0
 37 39  2  0  0  0  0
 38 37  1  0  0  0  0
 39 40  1  0  0  0  0
 39  6  1  0  0  0  0
M  CHG  1   1  -1
M  END
