2,6,8
 OpenBabel05122313063D

 45 48  0  0  1  0  0  0  0  0999 V2000
    5.5766    0.3888   -0.1211 O   0  0  0  0  0  0  0  0  0  0  0  0
   -0.8243    1.3305   -0.2715 O   0  0  0  0  0  1  0  0  0  0  0  0
    3.6566   -0.8041   -0.1065 N   0  0  0  0  0  0  0  0  0  0  0  0
    1.3558    0.5815   -0.1776 N   0  0  0  0  0  0  0  0  0  0  0  0
    1.9567   -0.2735   -0.1279 H   0  0  0  0  0  0  0  0  0  0  0  0
   -1.8108   -1.1523   -0.5160 N   0  0  0  0  0  0  0  0  0  0  0  0
   -1.8240   -1.1015   -1.5426 H   0  0  0  0  0  0  0  0  0  0  0  0
   -4.4558   -0.7302   -0.2584 N   0  0  0  0  0  2  0  0  0  0  0  0
    5.9208   -0.9392   -0.0634 C   0  0  0  0  0  0  0  0  0  0  0  0
    7.1931   -1.5067   -0.0197 C   0  0  0  0  0  0  0  0  0  0  0  0
    8.1045   -0.8936   -0.0284 H   0  0  0  0  0  0  0  0  0  0  0  0
    7.2310   -2.9108    0.0374 C   0  0  0  0  0  0  0  0  0  0  0  0
    8.2065   -3.4177    0.0746 H   0  0  0  0  0  0  0  0  0  0  0  0
    6.0486   -3.6869    0.0495 C   0  0  0  0  0  0  0  0  0  0  0  0
    6.1317   -4.7829    0.0966 H   0  0  0  0  0  0  0  0  0  0  0  0
    4.7775   -3.0963    0.0048 C   0  0  0  0  0  0  0  0  0  0  0  0
    3.8573   -3.6970    0.0162 H   0  0  0  0  0  0  0  0  0  0  0  0
    4.7230   -1.6928   -0.0532 C   0  0  0  0  0  0  0  0  0  0  0  0
    4.1983    0.4001   -0.1436 C   0  0  0  0  0  0  0  0  0  0  0  0
    3.5214    1.6856   -0.2013 C   0  0  0  0  0  0  0  0  0  0  0  0
    4.2879    2.8740   -0.2379 C   0  0  0  0  0  0  0  0  0  0  0  0
    5.3832    2.7901   -0.2232 H   0  0  0  0  0  0  0  0  0  0  0  0
    3.6716    4.1246   -0.2898 C   0  0  0  0  0  0  0  0  0  0  0  0
    4.2818    5.0389   -0.3173 H   0  0  0  0  0  0  0  0  0  0  0  0
    2.2677    4.2014   -0.3055 C   0  0  0  0  0  0  0  0  0  0  0  0
    1.7695    5.1817   -0.3447 H   0  0  0  0  0  0  0  0  0  0  0  0
    1.4799    3.0459   -0.2713 C   0  0  0  0  0  0  0  0  0  0  0  0
    0.3853    3.1034   -0.2846 H   0  0  0  0  0  0  0  0  0  0  0  0
    2.0898    1.7730   -0.2178 C   0  0  0  0  0  0  0  0  0  0  0  0
    0.0047    0.4147   -0.1754 C   0  0  1  0  0  3  0  0  0  0  0  0
   -0.4631   -1.0300    0.0107 C   0  0  0  0  0  0  0  0  0  0  0  0
    0.2747   -1.7559   -0.4045 H   0  0  0  0  0  0  0  0  0  0  0  0
   -0.5358   -1.1739    1.1140 H   0  0  0  0  0  0  0  0  0  0  0  0
   -2.6135   -2.2693   -0.0232 C   0  0  0  0  0  0  0  0  0  0  0  0
   -2.5038   -2.2561    1.0868 H   0  0  0  0  0  0  0  0  0  0  0  0
   -2.2963   -3.2670   -0.4044 H   0  0  0  0  0  0  0  0  0  0  0  0
   -4.0750   -2.0193   -0.3300 C   0  0  1  0  0  3  0  0  0  0  0  0
   -4.9953   -3.0339   -0.6351 C   0  0  0  0  0  0  0  0  0  0  0  0
   -4.6629   -4.0809   -0.6997 H   0  0  0  0  0  0  0  0  0  0  0  0
   -6.3352   -2.6815   -0.8565 C   0  0  0  0  0  0  0  0  0  0  0  0
   -7.0785   -3.4572   -1.0961 H   0  0  0  0  0  0  0  0  0  0  0  0
   -6.7134   -1.3324   -0.7816 C   0  0  0  0  0  0  0  0  0  0  0  0
   -7.7522   -1.0194   -0.9592 H   0  0  0  0  0  0  0  0  0  0  0  0
   -5.7315   -0.3780   -0.4821 C   0  0  0  0  0  0  0  0  0  0  0  0
   -5.9227    0.7090   -0.4266 H   0  0  0  0  0  0  0  0  0  0  0  0
  1  9  1  0  0  0  0
  3 18  1  0  0  0  0
  4 30  1  0  0  0  0
  4  5  1  0  0  0  0
  6 34  1  0  0  0  0
  6 31  1  0  0  0  0
  7  6  1  0  0  0  0
  9 18  2  0  0  0  0
  9 10  1  0  0  0  0
 10 12  2  0  0  0  0
 11 10  1  0  0  0  0
 12 14  1  0  0  0  0
 12 13  1  0  0  0  0
 14 15  1  0  0  0  0
 16 17  1  0  0  0  0
 16 14  2  0  0  0  0
 18 16  1  0  0  0  0
 19  1  1  0  0  0  0
 19  3  2  0  0  0  0
 20 19  1  0  0  0  0
 21 22  1  0  0  0  0
 21 20  2  0  0  0  0
 23 21  1  0  0  0  0
 24 23  1  0  0  0  0
 25 23  2  0  0  0  0
 25 27  1  0  0  0  0
 26 25  1  0  0  0  0
 27 29  2  0  0  0  0
 28 27  1  0  0  0  0
 29 20  1  0  0  0  0
 29  4  1  0  0  0  0
 30  2  1  1  0  0  0
 30 31  1  0  0  0  0
 31 33  1  0  0  0  0
 32 31  1  0  0  0  0
 34 35  1  0  0  0  0
 36 34  1  0  0  0  0
 37  8  1  0  0  0  0
 37 34  1  1  0  0  0
 38 37  1  0  0  0  0
 39 38  1  0  0  0  0
 40 42  1  0  0  0  0
 40 38  2  0  0  0  0
 41 40  1  0  0  0  0
 42 44  2  0  0  0  0
 43 42  1  0  0  0  0
 44 45  1  0  0  0  0
 44  8  1  0  0  0  0
M  END
