1,2,3
 OpenBabel05122313063D

 48 50  0  0  1  0  0  0  0  0999 V2000
    1.6107   -1.3933    0.0082 N   0  0  0  0  0  2  0  0  0  0  0  0
   -1.0568   -1.0907    0.0065 N   0  0  0  0  0  2  0  0  0  0  0  0
    2.8030    0.9248   -0.0058 O   0  5  0  0  0  0  0  0  0  0  0  0
    3.5854   -0.1286   -0.0004 C   0  0  0  0  0  0  0  0  0  0  0  0
    4.9914   -0.1078   -0.0017 C   0  0  0  0  0  0  0  0  0  0  0  0
    5.5127    0.8598   -0.0078 H   0  0  0  0  0  0  0  0  0  0  0  0
    5.7146   -1.3234    0.0047 C   0  0  0  0  0  0  0  0  0  0  0  0
    6.8147   -1.2728    0.0035 H   0  0  0  0  0  0  0  0  0  0  0  0
    5.1010   -2.5827    0.0125 C   0  0  0  0  0  0  0  0  0  0  0  0
    5.7044   -3.5019    0.0172 H   0  0  0  0  0  0  0  0  0  0  0  0
    3.6877   -2.6650    0.0141 C   0  0  0  0  0  0  0  0  0  0  0  0
    2.9029   -3.8593    0.0214 C   0  0  0  0  0  0  0  0  0  0  0  0
    3.4109   -4.8358    0.0266 H   0  0  0  0  0  0  0  0  0  0  0  0
    1.5162   -3.7918    0.0218 C   0  0  0  0  0  0  0  0  0  0  0  0
    0.9027   -4.7043    0.0273 H   0  0  0  0  0  0  0  0  0  0  0  0
    0.8811   -2.5162    0.0149 C   0  0  0  0  0  0  0  0  0  0  0  0
    2.9525   -1.4296    0.0076 C   0  0  2  0  0  3  0  0  0  0  0  0
   -0.5542   -2.2950    0.0138 C   0  0  0  0  0  3  0  0  0  0  0  0
   -1.2231   -3.1776    0.0189 H   0  0  0  0  0  0  0  0  0  0  0  0
   -2.5009   -1.0227    0.0049 C   0  0  0  0  0  0  0  0  0  0  0  0
   -3.1911   -0.9808    1.2450 C   0  0  0  0  0  0  0  0  0  0  0  0
   -4.5978   -0.9255    1.2133 C   0  0  0  0  0  0  0  0  0  0  0  0
   -5.1521   -0.8900    2.1622 H   0  0  0  0  0  0  0  0  0  0  0  0
   -5.2988   -0.9086    0.0025 C   0  0  0  0  0  0  0  0  0  0  0  0
   -6.3984   -0.8621    0.0015 H   0  0  0  0  0  0  0  0  0  0  0  0
   -4.5964   -0.9447   -1.2072 C   0  0  0  0  0  0  0  0  0  0  0  0
   -5.1498   -0.9245   -2.1571 H   0  0  0  0  0  0  0  0  0  0  0  0
   -3.1898   -1.0010   -1.2366 C   0  0  0  0  0  0  0  0  0  0  0  0
   -2.4404   -1.0104    2.5689 C   0  0  0  0  0  0  0  0  0  0  0  0
   -1.4408   -0.5628    2.3927 H   0  0  0  0  0  0  0  0  0  0  0  0
   -2.2073   -2.4540    3.0517 C   0  0  0  0  0  0  0  0  0  0  0  0
   -3.1718   -2.9751    3.2268 H   0  0  0  0  0  0  0  0  0  0  0  0
   -1.6334   -2.4557    4.0005 H   0  0  0  0  0  0  0  0  0  0  0  0
   -1.6327   -3.0529    2.3179 H   0  0  0  0  0  0  0  0  0  0  0  0
   -3.1178   -0.1885    3.6742 C   0  0  0  0  0  0  0  0  0  0  0  0
   -3.3887    0.8281    3.3249 H   0  0  0  0  0  0  0  0  0  0  0  0
   -2.4292   -0.0778    4.5354 H   0  0  0  0  0  0  0  0  0  0  0  0
   -4.0430   -0.6715    4.0521 H   0  0  0  0  0  0  0  0  0  0  0  0
   -2.4382   -1.0534   -2.5594 C   0  0  0  0  0  0  0  0  0  0  0  0
   -1.4378   -0.6052   -2.3899 H   0  0  0  0  0  0  0  0  0  0  0  0
   -3.1134   -0.2477   -3.6779 C   0  0  0  0  0  0  0  0  0  0  0  0
   -4.0396   -0.7346   -4.0483 H   0  0  0  0  0  0  0  0  0  0  0  0
   -2.4243   -0.1526   -4.5407 H   0  0  0  0  0  0  0  0  0  0  0  0
   -3.3817    0.7749   -3.3451 H   0  0  0  0  0  0  0  0  0  0  0  0
   -2.2087   -2.5051   -3.0191 C   0  0  0  0  0  0  0  0  0  0  0  0
   -3.1745   -3.0266   -3.1858 H   0  0  0  0  0  0  0  0  0  0  0  0
   -1.6356   -3.0938   -2.2760 H   0  0  0  0  0  0  0  0  0  0  0  0
   -1.6350   -2.5233   -3.9679 H   0  0  0  0  0  0  0  0  0  0  0  0
  1 16  1  0  0  0  0
  2 18  1  0  0  0  0
  3  4  1  0  0  0  0
  5  4  2  0  0  0  0
  5  7  1  0  0  0  0
  6  5  1  0  0  0  0
  7  9  2  0  0  0  0
  8  7  1  0  0  0  0
  9 11  1  0  0  0  0
  9 10  1  0  0  0  0
 11 12  2  0  0  0  0
 12 14  1  0  0  0  0
 12 13  1  0  0  0  0
 14 15  1  0  0  0  0
 16 14  2  0  0  0  0
 17  4  1  6  0  0  0
 17  1  1  0  0  0  0
 17 11  1  0  0  0  0
 18 16  1  0  0  0  0
 18 19  1  0  0  0  0
 20  2  1  0  0  0  0
 20 21  1  0  0  0  0
 21 29  1  0  0  0  0
 22 21  2  0  0  0  0
 22 23  1  0  0  0  0
 24 22  1  0  0  0  0
 25 24  1  0  0  0  0
 26 24  2  0  0  0  0
 27 26  1  0  0  0  0
 28 26  1  0  0  0  0
 28 20  2  0  0  0  0
 29 31  1  0  0  0  0
 29 35  1  0  0  0  0
 30 29  1  0  0  0  0
 31 32  1  0  0  0  0
 31 33  1  0  0  0  0
 34 31  1  0  0  0  0
 35 38  1  0  0  0  0
 35 37  1  0  0  0  0
 36 35  1  0  0  0  0
 39 40  1  0  0  0  0
 39 28  1  0  0  0  0
 41 44  1  0  0  0  0
 41 39  1  0  0  0  0
 42 41  1  0  0  0  0
 43 41  1  0  0  0  0
 45 39  1  0  0  0  0
 45 47  1  0  0  0  0
 46 45  1  0  0  0  0
 48 45  1  0  0  0  0
M  CHG  1   3  -1
M  END
