1,2,3
 OpenBabel05122313063D

 39 41  0  0  1  0  0  0  0  0999 V2000
   -0.2089   -0.8807   -0.0010 O   0  5  0  0  0  0  0  0  0  0  0  0
   -4.1392   -0.5630   -0.0012 N   0  0  0  0  0  2  0  0  0  0  0  0
   -1.9951    0.8349    0.0002 N   0  0  0  0  0  2  0  0  0  0  0  0
   -0.7696    1.3701    0.0006 N   0  0  0  0  0  0  0  0  0  0  0  0
    2.5088   -0.1883   -0.0008 N   0  0  0  0  0  0  0  0  0  0  0  0
    3.6652    0.5039   -0.0003 N   0  0  0  0  0  0  0  0  0  0  0  0
    6.0155    0.4723   -0.0051 N   0  0  0  0  0  0  0  0  0  0  0  0
   -5.1968   -1.3875   -0.0030 C   0  0  0  0  0  3  0  0  0  0  0  0
   -4.9629   -2.4628   -0.0042 H   0  0  0  0  0  0  0  0  0  0  0  0
   -6.5134   -0.9051   -0.0035 C   0  0  0  0  0  0  0  0  0  0  0  0
   -7.3549   -1.6114   -0.0049 H   0  0  0  0  0  0  0  0  0  0  0  0
   -6.7180    0.4834   -0.0022 C   0  0  0  0  0  0  0  0  0  0  0  0
   -7.7376    0.8971   -0.0025 H   0  0  0  0  0  0  0  0  0  0  0  0
   -5.6128    1.3419   -0.0006 C   0  0  0  0  0  0  0  0  0  0  0  0
   -5.7429    2.4326    0.0002 H   0  0  0  0  0  0  0  0  0  0  0  0
   -4.3147    0.7901   -0.0002 C   0  0  0  0  0  0  0  0  0  0  0  0
   -3.0835    1.5793    0.0009 C   0  0  2  0  0  3  0  0  0  0  0  0
   -3.0676    3.0735    0.0024 C   0  0  0  0  0  0  0  0  0  0  0  0
   -2.0187    3.4201    0.0049 H   0  0  0  0  0  0  0  0  0  0  0  0
   -3.5866    3.4803    0.8955 H   0  0  0  0  0  0  0  0  0  0  0  0
   -3.5824    3.4818   -0.8925 H   0  0  0  0  0  0  0  0  0  0  0  0
    0.1286    0.3593   -0.0001 C   0  0  0  0  0  0  0  0  0  0  0  0
    1.5445    0.7411   -0.0001 C   0  0  0  0  0  0  0  0  0  0  0  0
    2.0940    2.0579    0.0006 C   0  0  0  0  0  0  0  0  0  0  0  0
    1.5432    3.0027    0.0013 H   0  0  0  0  0  0  0  0  0  0  0  0
    3.4708    1.8896    0.0004 C   0  0  0  0  0  0  0  0  0  0  0  0
    4.5386    2.9320    0.0014 C   0  0  0  0  0  0  0  0  0  0  0  0
    4.0603    3.9300    0.0045 H   0  0  0  0  0  0  0  0  0  0  0  0
    5.1987    2.8469   -0.8830 H   0  0  0  0  0  0  0  0  0  0  0  0
    5.2014    2.8426    0.8833 H   0  0  0  0  0  0  0  0  0  0  0  0
    4.8821   -0.2336   -0.0004 C   0  0  0  0  0  0  0  0  0  0  0  0
    4.8318   -1.6452    0.0042 C   0  0  0  0  0  0  0  0  0  0  0  0
    3.8582   -2.1510    0.0077 H   0  0  0  0  0  0  0  0  0  0  0  0
    6.0495   -2.3290    0.0036 C   0  0  0  0  0  0  0  0  0  0  0  0
    6.0586   -3.4295    0.0070 H   0  0  0  0  0  0  0  0  0  0  0  0
    7.2531   -1.6022   -0.0012 C   0  0  0  0  0  0  0  0  0  0  0  0
    8.2293   -2.1081   -0.0017 H   0  0  0  0  0  0  0  0  0  0  0  0
    7.1753   -0.2032   -0.0054 C   0  0  0  0  0  0  0  0  0  0  0  0
    8.0935    0.4102   -0.0092 H   0  0  0  0  0  0  0  0  0  0  0  0
  1 22  1  0  0  0  0
  2 16  1  0  0  0  0
  3  4  1  0  0  0  0
  5  6  1  0  0  0  0
  5 23  2  0  0  0  0
  6 26  1  0  0  0  0
  7 31  1  0  0  0  0
  8  2  1  0  0  0  0
  9  8  1  0  0  0  0
 10  8  1  0  0  0  0
 10 12  2  0  0  0  0
 11 10  1  0  0  0  0
 12 14  1  0  0  0  0
 13 12  1  0  0  0  0
 14 16  2  0  0  0  0
 14 15  1  0  0  0  0
 16 17  1  0  0  0  0
 17  3  1  6  0  0  0
 17 18  1  0  0  0  0
 18 19  1  0  0  0  0
 18 20  1  0  0  0  0
 21 18  1  0  0  0  0
 22 23  1  0  0  0  0
 22  4  2  0  0  0  0
 23 24  1  0  0  0  0
 24 25  1  0  0  0  0
 26 24  2  0  0  0  0
 26 27  1  0  0  0  0
 27 28  1  0  0  0  0
 27 30  1  0  0  0  0
 29 27  1  0  0  0  0
 31  6  1  0  0  0  0
 31 32  2  0  0  0  0
 32 33  1  0  0  0  0
 34 32  1  0  0  0  0
 34 35  1  0  0  0  0
 36 34  2  0  0  0  0
 37 36  1  0  0  0  0
 38  7  2  0  0  0  0
 38 36  1  0  0  0  0
 39 38  1  0  0  0  0
M  CHG  1   1  -1
M  END
