1,7,8
 OpenBabel05122313063D

 43 45  0  0  0  0  0  0  0  0999 V2000
   -0.7137   -0.8115   -0.0511 O   0  5  0  0  0  0  0  0  0  0  0  0
    4.3298   -1.3368    0.0449 N   0  0  0  0  0  0  0  0  0  0  0  0
    5.4755    0.7674   -0.0448 N   0  0  0  0  0  0  0  0  0  0  0  0
    3.1342    0.6795    0.0026 N   0  0  0  0  0  0  0  0  0  0  0  0
    1.9956   -0.0480   -0.0087 N   0  0  0  0  0  0  0  0  0  0  0  0
   -1.3235    1.4166    0.0070 N   0  0  0  0  0  0  0  0  0  0  0  0
   -2.5370    0.8204   -0.0160 N   0  0  0  0  0  2  0  0  0  0  0  0
   -4.6690   -0.5572    0.0049 N   0  0  0  0  0  2  0  0  0  0  0  0
   -3.5708    2.9295    0.0355 N   0  0  0  0  0  0  0  0  0  0  0  0
   -4.3208    3.4581    0.4785 H   0  0  0  0  0  0  0  0  0  0  0  0
   -2.6134    3.2791    0.1639 H   0  0  0  0  0  0  0  0  0  0  0  0
    5.5078   -1.9829    0.0384 C   0  0  0  0  0  0  0  0  0  0  0  0
    6.7253   -1.2728   -0.0086 C   0  0  0  0  0  0  0  0  0  0  0  0
    7.6908   -1.7984   -0.0131 H   0  0  0  0  0  0  0  0  0  0  0  0
    6.6624    0.1308   -0.0483 C   0  0  0  0  0  0  0  0  0  0  0  0
    4.3822   -0.0037    0.0010 C   0  0  0  0  0  0  0  0  0  0  0  0
    2.8981    2.0634    0.0156 C   0  0  0  0  0  0  0  0  0  0  0  0
    1.5198    2.1895    0.0126 C   0  0  0  0  0  0  0  0  0  0  0  0
    0.9436    3.1192    0.0199 H   0  0  0  0  0  0  0  0  0  0  0  0
    1.0099    0.8543   -0.0037 C   0  0  0  0  0  0  0  0  0  0  0  0
   -0.3993    0.4403   -0.0163 C   0  0  0  0  0  0  0  0  0  0  0  0
   -3.6233    1.5669    0.0294 C   0  0  0  0  0  0  0  0  0  0  0  0
   -4.8664    0.7901    0.0033 C   0  0  0  0  0  0  0  0  0  0  0  0
   -6.1637    1.3342   -0.0326 C   0  0  0  0  0  0  0  0  0  0  0  0
   -6.3094    2.4230   -0.0684 H   0  0  0  0  0  0  0  0  0  0  0  0
   -7.2603    0.4624   -0.0463 C   0  0  0  0  0  0  0  0  0  0  0  0
   -8.2841    0.8644   -0.0741 H   0  0  0  0  0  0  0  0  0  0  0  0
   -7.0391   -0.9225   -0.0338 C   0  0  0  0  0  0  0  0  0  0  0  0
   -7.8732   -1.6374   -0.0457 H   0  0  0  0  0  0  0  0  0  0  0  0
   -5.7162   -1.3921   -0.0152 C   0  0  0  0  0  0  0  0  0  0  0  0
   -5.4686   -2.4643   -0.0203 H   0  0  0  0  0  0  0  0  0  0  0  0
    5.4518   -3.4836    0.0844 C   0  0  0  0  0  0  0  0  0  0  0  0
    4.8754   -3.8623   -0.7838 H   0  0  0  0  0  0  0  0  0  0  0  0
    4.8980   -3.8094    0.9880 H   0  0  0  0  0  0  0  0  0  0  0  0
    6.4578   -3.9426    0.0848 H   0  0  0  0  0  0  0  0  0  0  0  0
    7.8927    0.9938   -0.0978 C   0  0  0  0  0  0  0  0  0  0  0  0
    7.8721    1.6316   -1.0048 H   0  0  0  0  0  0  0  0  0  0  0  0
    8.8220    0.3948   -0.0998 H   0  0  0  0  0  0  0  0  0  0  0  0
    7.9085    1.6819    0.7718 H   0  0  0  0  0  0  0  0  0  0  0  0
    3.9254    3.1465    0.0335 C   0  0  0  0  0  0  0  0  0  0  0  0
    3.4069    4.1242    0.0606 H   0  0  0  0  0  0  0  0  0  0  0  0
    4.5839    3.1082   -0.8553 H   0  0  0  0  0  0  0  0  0  0  0  0
    4.5964    3.0677    0.9106 H   0  0  0  0  0  0  0  0  0  0  0  0
  1 21  1  0  0  0  0
  3 16  1  0  0  0  0
  4 17  1  0  0  0  0
  5 20  2  0  0  0  0
  5  4  1  0  0  0  0
  7  6  1  0  0  0  0
  7 22  1  0  0  0  0
  9 11  1  0  0  0  0
  9 10  1  0  0  0  0
 12  2  1  0  0  0  0
 12 32  1  0  0  0  0
 13 12  2  0  0  0  0
 14 13  1  0  0  0  0
 15  3  2  0  0  0  0
 15 13  1  0  0  0  0
 16  4  1  0  0  0  0
 16  2  2  0  0  0  0
 17 40  1  0  0  0  0
 18 17  2  0  0  0  0
 18 19  1  0  0  0  0
 20 18  1  0  0  0  0
 21 20  1  0  0  0  0
 21  6  2  0  0  0  0
 22  9  1  0  0  0  0
 23  8  1  0  0  0  0
 23 22  2  0  0  0  0
 24 23  1  0  0  0  0
 25 24  1  0  0  0  0
 26 28  1  0  0  0  0
 26 24  2  0  0  0  0
 27 26  1  0  0  0  0
 28 30  2  0  0  0  0
 29 28  1  0  0  0  0
 30  8  1  0  0  0  0
 31 30  1  0  0  0  0
 32 35  1  0  0  0  0
 32 34  1  0  0  0  0
 33 32  1  0  0  0  0
 36 15  1  0  0  0  0
 36 39  1  0  0  0  0
 37 36  1  0  0  0  0
 38 36  1  0  0  0  0
 40 41  1  0  0  0  0
 40 43  1  0  0  0  0
 42 40  1  0  0  0  0
M  CHG  1   1  -1
M  END
