1,9,17
 OpenBabel05122313063D

 28 29  0  0  0  0  0  0  0  0999 V2000
   -1.9444   -0.6162    0.2104 N   0  0  0  0  0  2  0  0  0  0  0  0
   -2.5591    0.5622    0.0971 C   0  0  0  0  0  0  0  0  0  0  0  0
   -3.9911    0.6515    0.1971 C   0  0  0  0  0  0  0  0  0  0  0  0
   -4.6459    1.8531    0.0220 C   0  0  0  0  0  0  0  0  0  0  0  0
   -3.9195    3.0495   -0.2592 C   0  0  0  0  0  0  0  0  0  0  0  0
   -2.5433    3.0012   -0.3461 C   0  0  0  0  0  3  0  0  0  0  0  0
   -1.8102    1.7804   -0.1599 C   0  0  0  0  0  0  0  0  0  0  0  0
   -0.4016    1.8584   -0.2171 C   0  0  0  0  0  0  0  0  0  0  0  0
    0.5147    0.8871   -0.0604 N   0  0  0  0  0  2  0  0  0  0  0  0
    1.8595    1.2677    0.0550 C   0  0  0  0  0  0  0  0  0  0  0  0
    2.2079    2.5893    0.4597 C   0  0  0  0  0  0  0  0  0  0  0  0
    3.5259    3.0356    0.4791 C   0  0  0  0  0  0  0  0  0  0  0  0
    4.5852    2.1787    0.1068 C   0  0  0  0  0  0  0  0  0  0  0  0
    4.2873    0.8642   -0.2179 C   0  0  0  0  0  3  0  0  0  0  0  0
    2.9512    0.3650   -0.2178 C   0  0  0  0  0  0  0  0  0  0  0  0
    2.8282   -1.0492   -0.4276 C   0  0  0  0  0  0  0  0  0  0  0  0
    1.7937   -1.7568   -0.2914 O   0  5  0  0  0  0  0  0  0  0  0  0
   -2.5424   -1.4442    0.3459 H   0  0  0  0  0  0  0  0  0  0  0  0
   -4.5521   -0.2726    0.4037 H   0  0  0  0  0  0  0  0  0  0  0  0
   -5.7436    1.8877    0.0964 H   0  0  0  0  0  0  0  0  0  0  0  0
   -4.4547    3.9995   -0.3987 H   0  0  0  0  0  0  0  0  0  0  0  0
   -1.9701    3.9191   -0.5519 H   0  0  0  0  0  0  0  0  0  0  0  0
   -0.0089    2.8664   -0.4304 H   0  0  0  0  0  0  0  0  0  0  0  0
    1.4198    3.2710    0.8040 H   0  0  0  0  0  0  0  0  0  0  0  0
    3.7380    4.0642    0.8084 H   0  0  0  0  0  0  0  0  0  0  0  0
    5.6251    2.5349    0.1121 H   0  0  0  0  0  0  0  0  0  0  0  0
    5.0961    0.1571   -0.4598 H   0  0  0  0  0  0  0  0  0  0  0  0
    3.7578   -1.6020   -0.6884 H   0  0  0  0  0  0  0  0  0  0  0  0
  1 18  1  0  0  0  0
  2  3  2  0  0  0  0
  2  1  1  0  0  0  0
  3 19  1  0  0  0  0
  4 20  1  0  0  0  0
  4  3  1  0  0  0  0
  5  4  2  0  0  0  0
  6  5  1  0  0  0  0
  6  7  1  0  0  0  0
  7  2  1  0  0  0  0
  8  7  2  0  0  0  0
  8  9  1  0  0  0  0
  9 10  1  0  0  0  0
 10 11  2  0  0  0  0
 11 12  1  0  0  0  0
 11 24  1  0  0  0  0
 12 25  1  0  0  0  0
 13 26  1  0  0  0  0
 13 12  2  0  0  0  0
 14 15  1  0  0  0  0
 14 13  1  0  0  0  0
 15 10  1  0  0  0  0
 16 17  1  0  0  0  0
 16 15  2  0  0  0  0
 21  5  1  0  0  0  0
 22  6  1  0  0  0  0
 23  8  1  0  0  0  0
 27 14  1  0  0  0  0
 28 16  1  0  0  0  0
M  CHG  1  17  -1
M  END
