1,3,5
 OpenBabel05122313063D

 33 34  0  0  1  0  0  0  0  0999 V2000
    0.9066    0.0020   -1.8973 O   0  5  0  0  0  0  0  0  0  0  0  0
    2.8423   -0.0003   -3.0936 O   0  0  0  0  0  0  0  0  0  0  0  0
    1.5205    1.4333    0.5560 N   0  0  0  0  0  2  0  0  0  0  0  0
    2.7660    1.1968    0.0833 N   0  0  0  0  0  0  0  0  0  0  0  0
    1.5182   -1.4373    0.5515 N   0  0  0  0  0  2  0  0  0  0  0  0
    2.7647   -1.1997    0.0817 N   0  0  0  0  0  0  0  0  0  0  0  0
    3.0155   -0.0011   -0.7071 C   0  0  1  0  0  0  0  0  0  0  0  0
    4.0786   -0.0015   -0.9902 H   0  0  0  0  0  0  0  0  0  0  0  0
    2.1791    0.0004   -2.0571 C   0  0  0  0  0  0  0  0  0  0  0  0
    0.3733    3.1029    1.9688 C   0  0  0  0  0  0  0  0  0  0  0  0
   -0.1800    2.2675    2.4424 H   0  0  0  0  0  0  0  0  0  0  0  0
    0.6607    3.8414    2.7402 H   0  0  0  0  0  0  0  0  0  0  0  0
   -0.3210    3.6000    1.2594 H   0  0  0  0  0  0  0  0  0  0  0  0
    1.5828    2.5708    1.2690 C   0  0  1  0  0  3  0  0  0  0  0  0
    2.9084    3.0784    1.2266 C   0  0  0  0  0  0  0  0  0  0  0  0
    3.2856    3.9900    1.7018 H   0  0  0  0  0  0  0  0  0  0  0  0
    3.6502    2.1740    0.4620 C   0  0  0  0  0  0  0  0  0  0  0  0
    5.0898    2.1662    0.0664 C   0  0  0  0  0  0  0  0  0  0  0  0
    5.6279    1.2795    0.4639 H   0  0  0  0  0  0  0  0  0  0  0  0
    5.2142    2.1676   -1.0365 H   0  0  0  0  0  0  0  0  0  0  0  0
    5.5919    3.0663    0.4653 H   0  0  0  0  0  0  0  0  0  0  0  0
    0.3694   -3.1074    1.9625 C   0  0  0  0  0  0  0  0  0  0  0  0
   -0.1829   -2.2729    2.4390 H   0  0  0  0  0  0  0  0  0  0  0  0
   -0.3255   -3.6005    1.2508 H   0  0  0  0  0  0  0  0  0  0  0  0
    0.6554   -3.8491    2.7311 H   0  0  0  0  0  0  0  0  0  0  0  0
    1.5799   -2.5744    1.2652 C   0  0  2  0  0  3  0  0  0  0  0  0
    2.9061   -3.0807    1.2263 C   0  0  0  0  0  0  0  0  0  0  0  0
    3.2830   -3.9918    1.7027 H   0  0  0  0  0  0  0  0  0  0  0  0
    3.6490   -2.1758    0.4632 C   0  0  0  0  0  0  0  0  0  0  0  0
    5.0896   -2.1667    0.0715 C   0  0  0  0  0  0  0  0  0  0  0  0
    5.2171   -2.1686   -1.0310 H   0  0  0  0  0  0  0  0  0  0  0  0
    5.6257   -1.2792    0.4700 H   0  0  0  0  0  0  0  0  0  0  0  0
    5.5915   -3.0660    0.4723 H   0  0  0  0  0  0  0  0  0  0  0  0
  2  9  2  0  0  0  0
  3 14  1  0  0  0  0
  4 17  1  0  0  0  0
  4  3  1  0  0  0  0
  5 26  1  0  0  0  0
  6 29  1  0  0  0  0
  6  5  1  0  0  0  0
  7  8  1  6  0  0  0
  7  6  1  0  0  0  0
  7  4  1  0  0  0  0
  9  1  1  0  0  0  0
  9  7  1  0  0  0  0
 10 11  1  0  0  0  0
 10 12  1  0  0  0  0
 13 10  1  0  0  0  0
 14 10  1  1  0  0  0
 15 14  1  0  0  0  0
 15 16  1  0  0  0  0
 17 15  2  0  0  0  0
 18 17  1  0  0  0  0
 18 19  1  0  0  0  0
 18 21  1  0  0  0  0
 20 18  1  0  0  0  0
 22 23  1  0  0  0  0
 22 25  1  0  0  0  0
 24 22  1  0  0  0  0
 26 22  1  1  0  0  0
 27 26  1  0  0  0  0
 27 28  1  0  0  0  0
 29 27  2  0  0  0  0
 30 29  1  0  0  0  0
 30 32  1  0  0  0  0
 30 33  1  0  0  0  0
 31 30  1  0  0  0  0
M  CHG  1   1  -1
M  END
