1,3,36
 OpenBabel05122313063D

 48 50  0  0  1  0  0  0  0  0999 V2000
   -2.7268    1.1093    0.2297 O   0  0  0  0  0  1  0  0  0  0  0  0
   -3.7551    0.3425    0.4472 C   0  0  1  0  0  3  0  0  0  0  0  0
    0.8636   -0.3006   -1.0202 N   0  0  0  0  0  2  0  0  0  0  0  0
    4.3546   -0.8954    1.0394 C   0  0  0  0  0  0  0  0  0  0  0  0
    2.0958   -0.1986   -0.6137 C   0  0  2  0  0  3  0  0  0  0  0  0
    2.5416    0.8925    0.4049 C   0  0  1  0  0  0  0  0  0  0  0  0
    4.0094    0.6235    0.8110 C   0  0  2  0  0  0  0  0  0  0  0  0
    4.2843    1.3394    1.6113 H   0  0  0  0  0  0  0  0  0  0  0  0
   -6.0894    0.2519    1.2291 C   0  0  0  0  0  0  0  0  0  0  0  0
   -6.9695    0.7770    1.6326 H   0  0  0  0  0  0  0  0  0  0  0  0
   -4.9331    0.9718    0.9690 C   0  0  0  0  0  0  0  0  0  0  0  0
   -4.8722    2.0537    1.1533 H   0  0  0  0  0  0  0  0  0  0  0  0
    0.4537   -1.3476   -1.9725 C   0  0  0  0  0  0  0  0  0  0  0  0
    1.2999   -1.9327   -2.3777 H   0  0  0  0  0  0  0  0  0  0  0  0
   -0.0655   -0.8550   -2.8197 H   0  0  0  0  0  0  0  0  0  0  0  0
    5.6868   -1.0524    1.7842 C   0  0  0  0  0  0  0  0  0  0  0  0
    5.5618   -0.7967    2.8566 H   0  0  0  0  0  0  0  0  0  0  0  0
    6.4858   -0.4035    1.3778 H   0  0  0  0  0  0  0  0  0  0  0  0
    6.0435   -2.1020    1.7282 H   0  0  0  0  0  0  0  0  0  0  0  0
    3.3435   -1.8625    1.6617 C   0  0  0  0  0  0  0  0  0  0  0  0
    3.7066   -2.9064    1.5508 H   0  0  0  0  0  0  0  0  0  0  0  0
    2.3319   -1.8140    1.2141 H   0  0  0  0  0  0  0  0  0  0  0  0
    3.2273   -1.6701    2.7479 H   0  0  0  0  0  0  0  0  0  0  0  0
    4.5407   -0.9277   -0.5162 C   0  0  1  0  0  0  0  0  0  0  0  0
    5.2808   -1.6420   -0.9348 H   0  0  0  0  0  0  0  0  0  0  0  0
    3.1847   -1.0985   -1.1996 C   0  0  0  0  0  0  0  0  0  0  0  0
    2.8574   -2.1572   -1.1314 H   0  0  0  0  0  0  0  0  0  0  0  0
    3.2828   -0.8743   -2.2851 H   0  0  0  0  0  0  0  0  0  0  0  0
   -5.0410   -1.7854    0.4707 C   0  0  0  0  0  0  0  0  0  0  0  0
   -5.0712   -2.8680    0.2664 H   0  0  0  0  0  0  0  0  0  0  0  0
   -6.1580   -1.1439    0.9804 C   0  0  0  0  0  0  0  0  0  0  0  0
   -7.0814   -1.7035    1.1865 H   0  0  0  0  0  0  0  0  0  0  0  0
   -3.8257   -1.0854    0.1988 C   0  0  0  0  0  0  0  0  0  0  0  0
   -2.7378   -1.8380   -0.3437 C   0  0  0  0  0  0  0  0  0  0  0  0
   -2.9456   -2.9034   -0.5723 H   0  0  0  0  0  0  0  0  0  0  0  0
   -1.5339   -1.3964   -0.6079 N   0  0  0  0  0  2  0  0  0  0  0  0
   -0.5231   -2.2546   -1.2218 C   0  0  0  0  0  0  0  0  0  0  0  0
   -0.9846   -2.9984   -1.9062 H   0  0  0  0  0  0  0  0  0  0  0  0
    0.0309   -2.8108   -0.4314 H   0  0  0  0  0  0  0  0  0  0  0  0
    2.5679    2.1142   -0.3117 O   0  0  0  0  0  0  0  0  0  0  0  0
    4.8847    0.5782   -0.4657 C   0  0  0  0  0  0  0  0  0  0  0  0
    4.5478    1.2161   -1.3043 H   0  0  0  0  0  0  0  0  0  0  0  0
    5.9532    0.7739   -0.2654 H   0  0  0  0  0  0  0  0  0  0  0  0
    1.6635    0.9842    1.6610 C   0  0  0  0  0  0  0  0  0  0  0  0
    2.0381    1.8349    2.2629 H   0  0  0  0  0  0  0  0  0  0  0  0
    1.7111    0.0669    2.2753 H   0  0  0  0  0  0  0  0  0  0  0  0
    0.6052    1.1926    1.4127 H   0  0  0  0  0  0  0  0  0  0  0  0
    1.6230    2.4256   -0.4207 H   0  0  0  0  0  0  0  0  0  0  0  0
  2  1  1  6  0  0  0
  2 11  1  0  0  0  0
  4 20  1  0  0  0  0
  4 16  1  0  0  0  0
  5  3  1  6  0  0  0
  5  6  1  0  0  0  0
  6 40  1  6  0  0  0
  6  7  1  0  0  0  0
  6 44  1  0  0  0  0
  7  4  1  0  0  0  0
  7  8  1  1  0  0  0
  9 10  1  0  0  0  0
 11 12  1  0  0  0  0
 11  9  2  0  0  0  0
 13 37  1  0  0  0  0
 13  3  1  0  0  0  0
 14 13  1  0  0  0  0
 15 13  1  0  0  0  0
 16 17  1  0  0  0  0
 18 16  1  0  0  0  0
 19 16  1  0  0  0  0
 20 23  1  0  0  0  0
 21 20  1  0  0  0  0
 22 20  1  0  0  0  0
 24 25  1  6  0  0  0
 24 41  1  0  0  0  0
 24  4  1  0  0  0  0
 26 27  1  0  0  0  0
 26  5  1  0  0  0  0
 26 24  1  0  0  0  0
 28 26  1  0  0  0  0
 29 31  2  0  0  0  0
 30 29  1  0  0  0  0
 31 32  1  0  0  0  0
 31  9  1  0  0  0  0
 33  2  1  0  0  0  0
 33 29  1  0  0  0  0
 34 33  2  0  0  0  0
 35 34  1  0  0  0  0
 36 34  1  0  0  0  0
 37 36  1  0  0  0  0
 37 39  1  0  0  0  0
 38 37  1  0  0  0  0
 41 43  1  0  0  0  0
 41  7  1  0  0  0  0
 42 41  1  0  0  0  0
 44 45  1  0  0  0  0
 44 46  1  0  0  0  0
 47 44  1  0  0  0  0
 48 40  1  0  0  0  0
M  END
