1,2,3
 OpenBabel05122313063D

 27 28  0  0  1  0  0  0  0  0999 V2000
    1.4455    1.3421   -0.2851 O   0  0  0  0  0  1  0  0  0  0  0  0
   -0.0186   -1.0918    0.5193 N   0  0  0  0  0  2  0  0  0  0  0  0
   -2.2510    0.2258   -0.1612 N   0  0  0  0  0  2  0  0  0  0  0  0
    2.3824   -0.9118    0.0625 C   0  0  0  0  0  0  0  0  0  0  0  0
    2.4675    0.5079   -0.2556 C   0  0  1  0  0  3  0  0  0  0  0  0
    3.7534    1.0287   -0.5733 C   0  0  0  0  0  0  0  0  0  0  0  0
    3.8090    2.0984   -0.8217 H   0  0  0  0  0  0  0  0  0  0  0  0
    4.8910    0.2291   -0.5711 C   0  0  0  0  0  0  0  0  0  0  0  0
    5.8655    0.6784   -0.8170 H   0  0  0  0  0  0  0  0  0  0  0  0
    4.8127   -1.1520   -0.2668 C   0  0  0  0  0  0  0  0  0  0  0  0
    5.7159   -1.7776   -0.2754 H   0  0  0  0  0  0  0  0  0  0  0  0
    3.5770   -1.7004    0.0328 C   0  0  0  0  0  0  0  0  0  0  0  0
    3.4932   -2.7745    0.2628 H   0  0  0  0  0  0  0  0  0  0  0  0
    1.1709   -1.6230    0.3517 C   0  0  0  0  0  0  0  0  0  0  0  0
    1.2671   -2.7285    0.4197 H   0  0  0  0  0  0  0  0  0  0  0  0
   -1.2260   -1.8732    0.6464 C   0  0  0  0  0  0  0  0  0  0  0  0
   -1.4315   -2.1161    1.7170 H   0  0  0  0  0  0  0  0  0  0  0  0
   -1.1619   -2.8492    0.1154 H   0  0  0  0  0  0  0  0  0  0  0  0
   -2.4249   -1.0914    0.1161 C   0  0  1  0  0  3  0  0  0  0  0  0
   -3.6791   -1.6974   -0.0564 C   0  0  0  0  0  0  0  0  0  0  0  0
   -3.8037   -2.7667    0.1702 H   0  0  0  0  0  0  0  0  0  0  0  0
   -4.7545   -0.9301   -0.5196 C   0  0  0  0  0  0  0  0  0  0  0  0
   -5.7419   -1.3927   -0.6662 H   0  0  0  0  0  0  0  0  0  0  0  0
   -4.5589    0.4334   -0.7969 C   0  0  0  0  0  0  0  0  0  0  0  0
   -5.3781    1.0686   -1.1615 H   0  0  0  0  0  0  0  0  0  0  0  0
   -3.2884    0.9754   -0.6017 C   0  0  0  0  0  0  0  0  0  0  0  0
   -3.0757    2.0378   -0.7980 H   0  0  0  0  0  0  0  0  0  0  0  0
  2 16  1  0  0  0  0
  3 19  1  0  0  0  0
  4 14  2  0  0  0  0
  5  1  1  6  0  0  0
  5  4  1  0  0  0  0
  6  8  2  0  0  0  0
  6  5  1  0  0  0  0
  7  6  1  0  0  0  0
  8 10  1  0  0  0  0
  9  8  1  0  0  0  0
 10 12  2  0  0  0  0
 11 10  1  0  0  0  0
 12  4  1  0  0  0  0
 12 13  1  0  0  0  0
 14 15  1  0  0  0  0
 14  2  1  0  0  0  0
 16 17  1  0  0  0  0
 18 16  1  0  0  0  0
 19 16  1  1  0  0  0
 20 19  1  0  0  0  0
 20 21  1  0  0  0  0
 22 20  2  0  0  0  0
 23 22  1  0  0  0  0
 24 26  2  0  0  0  0
 24 22  1  0  0  0  0
 25 24  1  0  0  0  0
 26  3  1  0  0  0  0
 27 26  1  0  0  0  0
M  END
