1,14,21
 OpenBabel05122313063D

 35 35  0  0  1  0  0  0  0  0999 V2000
   -1.4781   -1.2093   -0.2733 O   0  0  0  0  0  1  0  0  0  0  0  0
   -2.5914   -0.5498   -0.1366 C   0  0  2  0  0  3  0  0  0  0  0  0
   -3.8041   -1.3156   -0.1656 C   0  0  0  0  0  0  0  0  0  0  0  0
   -3.6958   -2.4022   -0.2921 H   0  0  0  0  0  0  0  0  0  0  0  0
   -5.0490   -0.7176   -0.0420 C   0  0  0  0  0  0  0  0  0  0  0  0
   -5.9525   -1.3470   -0.0703 H   0  0  0  0  0  0  0  0  0  0  0  0
   -5.1767    0.6869    0.1190 C   0  0  0  0  0  0  0  0  0  0  0  0
   -6.1687    1.1508    0.2150 H   0  0  0  0  0  0  0  0  0  0  0  0
   -4.0279    1.4604    0.1504 C   0  0  0  0  0  0  0  0  0  0  0  0
   -4.1019    2.5536    0.2711 H   0  0  0  0  0  0  0  0  0  0  0  0
   -2.7248    0.8871    0.0298 C   0  0  0  0  0  0  0  0  0  0  0  0
   -1.6075    1.7797    0.0575 C   0  0  0  0  0  0  0  0  0  0  0  0
   -1.8412    2.8628    0.1168 H   0  0  0  0  0  0  0  0  0  0  0  0
   -0.3432    1.4411    0.0137 N   0  0  0  0  0  2  0  0  0  0  0  0
    0.7173    2.4396   -0.0782 C   0  0  0  0  0  0  0  0  0  0  0  0
    0.9200    2.6637   -1.1500 H   0  0  0  0  0  0  0  0  0  0  0  0
    0.4207    3.3980    0.4023 H   0  0  0  0  0  0  0  0  0  0  0  0
    1.9608    1.8765    0.5957 C   0  0  0  0  0  0  0  0  0  0  0  0
    1.7781    1.8111    1.6843 H   0  0  0  0  0  0  0  0  0  0  0  0
    2.8398    2.5381    0.4388 H   0  0  0  0  0  0  0  0  0  0  0  0
    2.2521    0.4909    0.1157 N   0  0  0  0  0  0  0  0  0  0  0  0
    3.1394   -0.2287    1.0869 C   0  0  0  0  0  0  0  0  0  0  0  0
    3.4485   -1.1590    0.5728 H   0  0  0  0  0  0  0  0  0  0  0  0
    4.0405    0.4007    1.2620 H   0  0  0  0  0  0  0  0  0  0  0  0
    2.4764   -0.6004    2.4051 C   0  0  0  0  0  0  0  0  0  0  0  0
    3.2262   -1.1005    3.0503 H   0  0  0  0  0  0  0  0  0  0  0  0
    1.6459   -1.3107    2.2250 H   0  0  0  0  0  0  0  0  0  0  0  0
    2.0909    0.2730    2.9686 H   0  0  0  0  0  0  0  0  0  0  0  0
    2.8543    0.4672   -1.2609 C   0  0  0  0  0  0  0  0  0  0  0  0
    2.8566   -0.6028   -1.5504 H   0  0  0  0  0  0  0  0  0  0  0  0
    2.1356    0.9710   -1.9373 H   0  0  0  0  0  0  0  0  0  0  0  0
    4.2450    1.0830   -1.4077 C   0  0  0  0  0  0  0  0  0  0  0  0
    4.5447    1.0216   -2.4725 H   0  0  0  0  0  0  0  0  0  0  0  0
    5.0122    0.5412   -0.8212 H   0  0  0  0  0  0  0  0  0  0  0  0
    4.2817    2.1542   -1.1224 H   0  0  0  0  0  0  0  0  0  0  0  0
  2  1  1  6  0  0  0
  2 11  1  0  0  0  0
  3  2  1  0  0  0  0
  3  5  2  0  0  0  0
  4  3  1  0  0  0  0
  5  7  1  0  0  0  0
  6  5  1  0  0  0  0
  7  9  2  0  0  0  0
  7  8  1  0  0  0  0
  9 10  1  0  0  0  0
 11 12  2  0  0  0  0
 11  9  1  0  0  0  0
 12 13  1  0  0  0  0
 14 12  1  0  0  0  0
 15 14  1  0  0  0  0
 15 17  1  0  0  0  0
 15 18  1  0  0  0  0
 16 15  1  0  0  0  0
 18 19  1  0  0  0  0
 20 18  1  0  0  0  0
 21 18  1  0  0  0  0
 21 22  1  0  0  0  0
 22 24  1  0  0  0  0
 22 25  1  0  0  0  0
 23 22  1  0  0  0  0
 25 28  1  0  0  0  0
 25 26  1  0  0  0  0
 27 25  1  0  0  0  0
 29 21  1  0  0  0  0
 30 29  1  0  0  0  0
 31 29  1  0  0  0  0
 32 29  1  0  0  0  0
 32 35  1  0  0  0  0
 32 34  1  0  0  0  0
 33 32  1  0  0  0  0
M  END
