1,3,4
 OpenBabel05122313063D

 40 42  0  0  0  0  0  0  0  0999 V2000
    0.6356   -1.8968    0.1035 O   0  5  0  0  0  0  0  0  0  0  0  0
   -5.2006    1.2435   -1.1760 O   0  0  0  0  0  0  0  0  0  0  0  0
   -0.2637    0.5363    0.7745 N   0  0  0  0  0  2  0  0  0  0  0  0
   -2.8146    0.2364    0.1550 N   0  0  0  0  0  0  0  0  0  0  0  0
    2.0642    0.0310    0.1876 C   0  0  0  0  0  0  0  0  0  0  0  0
    1.8143   -1.3721    0.0041 C   0  0  0  0  0  0  0  0  0  0  0  0
    2.9262   -2.2481   -0.2586 C   0  0  0  0  0  0  0  0  0  0  0  0
    2.7013   -3.3190   -0.3621 H   0  0  0  0  0  0  0  0  0  0  0  0
    4.2005   -1.7512   -0.3877 C   0  0  0  0  0  0  0  0  0  0  0  0
    5.0374   -2.4354   -0.6012 H   0  0  0  0  0  0  0  0  0  0  0  0
    4.4865   -0.3506   -0.2660 C   0  0  0  0  0  0  0  0  0  0  0  0
    5.8092    0.1408   -0.4290 C   0  0  0  0  0  0  0  0  0  0  0  0
    6.6130   -0.5806   -0.6442 H   0  0  0  0  0  0  0  0  0  0  0  0
    6.0892    1.4982   -0.3249 C   0  0  0  0  0  0  0  0  0  0  0  0
    7.1169    1.8682   -0.4539 H   0  0  0  0  0  0  0  0  0  0  0  0
    5.0340    2.4016   -0.0622 C   0  0  0  0  0  0  0  0  0  0  0  0
    5.2414    3.4804    0.0070 H   0  0  0  0  0  0  0  0  0  0  0  0
    3.7284    1.9442    0.0989 C   0  0  0  0  0  0  0  0  0  0  0  0
    2.9338    2.6839    0.2730 H   0  0  0  0  0  0  0  0  0  0  0  0
    3.4099    0.5605    0.0174 C   0  0  0  0  0  0  0  0  0  0  0  0
    1.0062    0.8620    0.6584 C   0  0  0  0  0  3  0  0  0  0  0  0
    1.2939    1.8749    1.0070 H   0  0  0  0  0  0  0  0  0  0  0  0
   -1.1502    1.5062    1.4218 C   0  0  0  0  0  0  0  0  0  0  0  0
   -1.1130    2.4826    0.8870 H   0  0  0  0  0  0  0  0  0  0  0  0
   -0.8296    1.7067    2.4673 H   0  0  0  0  0  0  0  0  0  0  0  0
   -2.5663    0.9403    1.4326 C   0  0  0  0  0  0  0  0  0  0  0  0
   -2.6604    0.1702    2.2242 H   0  0  0  0  0  0  0  0  0  0  0  0
   -3.3057    1.7441    1.6401 H   0  0  0  0  0  0  0  0  0  0  0  0
   -4.1116   -0.4997    0.1394 C   0  0  0  0  0  0  0  0  0  0  0  0
   -4.0574   -1.1912   -0.7246 H   0  0  0  0  0  0  0  0  0  0  0  0
   -4.1679   -1.1185    1.0551 H   0  0  0  0  0  0  0  0  0  0  0  0
   -5.3055    0.4402   -0.0103 C   0  0  0  0  0  0  0  0  0  0  0  0
   -6.2338   -0.1568   -0.1110 H   0  0  0  0  0  0  0  0  0  0  0  0
   -5.4234    1.0867    0.8966 H   0  0  0  0  0  0  0  0  0  0  0  0
   -4.0065    2.0033   -1.1620 C   0  0  0  0  0  0  0  0  0  0  0  0
   -4.0294    2.7550   -0.3309 H   0  0  0  0  0  0  0  0  0  0  0  0
   -3.9690    2.5688   -2.1148 H   0  0  0  0  0  0  0  0  0  0  0  0
   -2.7715    1.1100   -1.0520 C   0  0  0  0  0  0  0  0  0  0  0  0
   -1.8402    1.7089   -1.0490 H   0  0  0  0  0  0  0  0  0  0  0  0
   -2.7142    0.4202   -1.9172 H   0  0  0  0  0  0  0  0  0  0  0  0
  2 35  1  0  0  0  0
  2 32  1  0  0  0  0
  3 23  1  0  0  0  0
  4 26  1  0  0  0  0
  5 21  1  0  0  0  0
  6  1  1  0  0  0  0
  6  5  2  0  0  0  0
  7  6  1  0  0  0  0
  8  7  1  0  0  0  0
  9 11  1  0  0  0  0
  9  7  2  0  0  0  0
 10  9  1  0  0  0  0
 11 20  1  0  0  0  0
 12 14  1  0  0  0  0
 12 11  2  0  0  0  0
 13 12  1  0  0  0  0
 14 16  2  0  0  0  0
 15 14  1  0  0  0  0
 16 17  1  0  0  0  0
 16 18  1  0  0  0  0
 18 19  1  0  0  0  0
 20 18  2  0  0  0  0
 20  5  1  0  0  0  0
 21  3  1  0  0  0  0
 21 22  1  0  0  0  0
 23 26  1  0  0  0  0
 23 25  1  0  0  0  0
 24 23  1  0  0  0  0
 26 28  1  0  0  0  0
 26 27  1  0  0  0  0
 29  4  1  0  0  0  0
 29 31  1  0  0  0  0
 30 29  1  0  0  0  0
 32 29  1  0  0  0  0
 32 34  1  0  0  0  0
 33 32  1  0  0  0  0
 35 38  1  0  0  0  0
 35 36  1  0  0  0  0
 37 35  1  0  0  0  0
 38 39  1  0  0  0  0
 38  4  1  0  0  0  0
 40 38  1  0  0  0  0
M  CHG  1   1  -1
M  END
