1,2,3
 OpenBabel05122313063D

 41 42  0  0  0  0  0  0  0  0999 V2000
    0.4374    0.7259    0.7183 N   0  0  0  0  0  2  0  0  0  0  0  0
    3.0444    0.5522    0.1301 N   0  0  0  0  0  0  0  0  0  0  0  0
   -0.3012   -1.8050    0.2689 O   0  5  0  0  0  0  0  0  0  0  0  0
   -1.8550    0.0232    0.2010 C   0  0  0  0  0  0  0  0  0  0  0  0
   -1.5120   -1.3704    0.1323 C   0  0  0  0  0  0  0  0  0  0  0  0
   -2.5647   -2.3371   -0.0439 C   0  0  0  0  0  0  0  0  0  0  0  0
   -2.2694   -3.3957   -0.0597 H   0  0  0  0  0  0  0  0  0  0  0  0
   -3.8700   -1.9382   -0.2008 C   0  0  0  0  0  0  0  0  0  0  0  0
   -4.6603   -2.6916   -0.3483 H   0  0  0  0  0  0  0  0  0  0  0  0
   -4.2484   -0.5542   -0.1928 C   0  0  0  0  0  0  0  0  0  0  0  0
   -5.6015   -0.1660   -0.3820 C   0  0  0  0  0  0  0  0  0  0  0  0
   -6.3569   -0.9539   -0.5284 H   0  0  0  0  0  0  0  0  0  0  0  0
   -5.9704    1.1742   -0.3872 C   0  0  0  0  0  0  0  0  0  0  0  0
   -7.0212    1.4638   -0.5355 H   0  0  0  0  0  0  0  0  0  0  0  0
   -4.9763    2.1639   -0.2117 C   0  0  0  0  0  0  0  0  0  0  0  0
   -5.2546    3.2288   -0.2300 H   0  0  0  0  0  0  0  0  0  0  0  0
   -3.6423    1.8083   -0.0276 C   0  0  0  0  0  0  0  0  0  0  0  0
   -2.8967    2.6099    0.0750 H   0  0  0  0  0  0  0  0  0  0  0  0
   -3.2336    0.4464    0.0028 C   0  0  0  0  0  0  0  0  0  0  0  0
   -0.8531    0.9556    0.5984 C   0  0  0  0  0  3  0  0  0  0  0  0
   -1.2066    1.9681    0.8816 H   0  0  0  0  0  0  0  0  0  0  0  0
    1.2624    1.7980    1.2792 C   0  0  0  0  0  0  0  0  0  0  0  0
    0.9163    2.0816    2.2968 H   0  0  0  0  0  0  0  0  0  0  0  0
    1.1873    2.7140    0.6503 H   0  0  0  0  0  0  0  0  0  0  0  0
    2.6992    1.3030    1.3563 C   0  0  0  0  0  0  0  0  0  0  0  0
    3.4031    2.1460    1.5405 H   0  0  0  0  0  0  0  0  0  0  0  0
    2.8051    0.5859    2.1953 H   0  0  0  0  0  0  0  0  0  0  0  0
    2.9218    1.3582   -1.1182 C   0  0  0  0  0  0  0  0  0  0  0  0
    1.8616    1.6648   -1.2135 H   0  0  0  0  0  0  0  0  0  0  0  0
    3.0862    0.6524   -1.9531 H   0  0  0  0  0  0  0  0  0  0  0  0
    3.8411    2.5730   -1.2204 C   0  0  0  0  0  0  0  0  0  0  0  0
    3.6618    3.3169   -0.4174 H   0  0  0  0  0  0  0  0  0  0  0  0
    3.6605    3.0853   -2.1861 H   0  0  0  0  0  0  0  0  0  0  0  0
    4.9130    2.2930   -1.1922 H   0  0  0  0  0  0  0  0  0  0  0  0
    4.4037   -0.0491    0.3012 C   0  0  0  0  0  0  0  0  0  0  0  0
    4.3152   -0.7209    1.1762 H   0  0  0  0  0  0  0  0  0  0  0  0
    5.1182    0.7659    0.5650 H   0  0  0  0  0  0  0  0  0  0  0  0
    4.9107   -0.8411   -0.8947 C   0  0  0  0  0  0  0  0  0  0  0  0
    4.1502   -1.5740   -1.2265 H   0  0  0  0  0  0  0  0  0  0  0  0
    5.8282   -1.3860   -0.5981 H   0  0  0  0  0  0  0  0  0  0  0  0
    5.1747   -0.1950   -1.7560 H   0  0  0  0  0  0  0  0  0  0  0  0
  1 22  1  0  0  0  0
  2 35  1  0  0  0  0
  2 25  1  0  0  0  0
  4 20  1  0  0  0  0
  5  4  1  0  0  0  0
  5  3  1  0  0  0  0
  6  5  2  0  0  0  0
  7  6  1  0  0  0  0
  8 10  2  0  0  0  0
  8  6  1  0  0  0  0
  9  8  1  0  0  0  0
 10 19  1  0  0  0  0
 11 10  1  0  0  0  0
 12 11  1  0  0  0  0
 13 11  2  0  0  0  0
 13 15  1  0  0  0  0
 14 13  1  0  0  0  0
 15 17  2  0  0  0  0
 16 15  1  0  0  0  0
 17 19  1  0  0  0  0
 17 18  1  0  0  0  0
 19  4  2  0  0  0  0
 20  1  1  0  0  0  0
 20 21  1  0  0  0  0
 22 25  1  0  0  0  0
 22 23  1  0  0  0  0
 24 22  1  0  0  0  0
 25 26  1  0  0  0  0
 25 27  1  0  0  0  0
 28  2  1  0  0  0  0
 29 28  1  0  0  0  0
 30 28  1  0  0  0  0
 31 34  1  0  0  0  0
 31 28  1  0  0  0  0
 31 32  1  0  0  0  0
 33 31  1  0  0  0  0
 35 37  1  0  0  0  0
 35 36  1  0  0  0  0
 38 40  1  0  0  0  0
 38 35  1  0  0  0  0
 39 38  1  0  0  0  0
 41 38  1  0  0  0  0
M  CHG  1   3  -1
M  END
