1,38,48
 OpenBabel05122313063D

 57 59  0  0  0  0  0  0  0  0999 V2000
   -0.4320   -1.2821   -0.3958 O   0  5  0  0  0  0  0  0  0  0  0  0
   -1.4661   -0.5205   -0.2097 C   0  0  0  0  0  0  0  0  0  0  0  0
   -2.7953   -1.0796   -0.2110 C   0  0  0  0  0  0  0  0  0  0  0  0
   -3.8598   -0.2000   -0.0194 C   0  0  0  0  0  0  0  0  0  0  0  0
   -4.8737   -0.6227   -0.0096 H   0  0  0  0  0  0  0  0  0  0  0  0
   -3.7350    1.2101    0.1731 C   0  0  0  0  0  0  0  0  0  0  0  0
   -2.4523    1.7351    0.1691 C   0  0  0  0  0  0  0  0  0  0  0  0
   -2.2792    2.8122    0.3084 H   0  0  0  0  0  0  0  0  0  0  0  0
   -1.3094    0.8998   -0.0172 C   0  0  0  0  0  0  0  0  0  0  0  0
   -2.9938   -2.5951   -0.3816 C   0  0  0  0  0  0  0  0  0  0  0  0
   -2.3019   -3.3339    0.7907 C   0  0  0  0  0  0  0  0  0  0  0  0
   -1.2191   -3.1145    0.8357 H   0  0  0  0  0  0  0  0  0  0  0  0
   -2.4284   -4.4299    0.6714 H   0  0  0  0  0  0  0  0  0  0  0  0
   -2.7568   -3.0414    1.7592 H   0  0  0  0  0  0  0  0  0  0  0  0
   -2.3910   -3.0586   -1.7298 C   0  0  0  0  0  0  0  0  0  0  0  0
   -1.3035   -2.8672   -1.7739 H   0  0  0  0  0  0  0  0  0  0  0  0
   -2.8779   -2.5354   -2.5783 H   0  0  0  0  0  0  0  0  0  0  0  0
   -2.5583   -4.1479   -1.8598 H   0  0  0  0  0  0  0  0  0  0  0  0
   -4.4847   -2.9773   -0.3721 C   0  0  0  0  0  0  0  0  0  0  0  0
   -4.5824   -4.0738   -0.4997 H   0  0  0  0  0  0  0  0  0  0  0  0
   -5.0443   -2.4953   -1.2001 H   0  0  0  0  0  0  0  0  0  0  0  0
   -4.9797   -2.7111    0.5843 H   0  0  0  0  0  0  0  0  0  0  0  0
   -5.0012    2.0577    0.3737 C   0  0  0  0  0  0  0  0  0  0  0  0
   -5.7531    1.5616    1.6301 C   0  0  0  0  0  0  0  0  0  0  0  0
   -5.1195    1.6597    2.5346 H   0  0  0  0  0  0  0  0  0  0  0  0
   -6.0493    0.4974    1.5404 H   0  0  0  0  0  0  0  0  0  0  0  0
   -6.6777    2.1544    1.7888 H   0  0  0  0  0  0  0  0  0  0  0  0
   -5.9145    1.9128   -0.8650 C   0  0  0  0  0  0  0  0  0  0  0  0
   -6.8418    2.5086   -0.7360 H   0  0  0  0  0  0  0  0  0  0  0  0
   -6.2147    0.8597   -1.0355 H   0  0  0  0  0  0  0  0  0  0  0  0
   -5.3993    2.2685   -1.7801 H   0  0  0  0  0  0  0  0  0  0  0  0
   -4.6698    3.5475    0.5621 C   0  0  0  0  0  0  0  0  0  0  0  0
   -4.0337    3.7177    1.4543 H   0  0  0  0  0  0  0  0  0  0  0  0
   -5.6041    4.1271    0.7037 H   0  0  0  0  0  0  0  0  0  0  0  0
   -4.1478    3.9676   -0.3215 H   0  0  0  0  0  0  0  0  0  0  0  0
   -0.0259    1.5091   -0.0611 C   0  0  0  0  0  3  0  0  0  0  0  0
   -0.0289    2.6145    0.0290 H   0  0  0  0  0  0  0  0  0  0  0  0
    1.1453    0.9049   -0.1889 N   0  0  0  0  0  2  0  0  0  0  0  0
    2.3146    1.6679   -0.3178 C   0  0  0  0  0  0  0  0  0  0  0  0
    2.3945    3.0138   -0.6943 C   0  0  0  0  0  0  0  0  0  0  0  0
    1.4847    3.5639   -0.9726 H   0  0  0  0  0  0  0  0  0  0  0  0
    3.6426    3.6807   -0.7444 C   0  0  0  0  0  0  0  0  0  0  0  0
    3.6684    4.7395   -1.0423 H   0  0  0  0  0  0  0  0  0  0  0  0
    4.8236    3.0190   -0.4340 C   0  0  0  0  0  3  0  0  0  0  0  0
    5.7921    3.5394   -0.4715 H   0  0  0  0  0  0  0  0  0  0  0  0
    4.7898    1.6401   -0.0837 C   0  0  0  0  0  0  0  0  0  0  0  0
    3.5309    0.9589   -0.0472 C   0  0  0  0  0  0  0  0  0  0  0  0
    3.4231   -0.3731    0.2368 N   0  0  0  0  0  2  0  0  0  0  0  0
    4.5166   -1.0997    0.5239 C   0  0  0  0  0  0  0  0  0  0  0  0
    5.8011   -0.4755    0.5352 C   0  0  0  0  0  0  0  0  0  0  0  0
    6.6778   -1.0910    0.7812 H   0  0  0  0  0  0  0  0  0  0  0  0
    5.9405    0.8655    0.2300 C   0  0  0  0  0  0  0  0  0  0  0  0
    6.9327    1.3429    0.2228 H   0  0  0  0  0  0  0  0  0  0  0  0
    4.3728   -2.5583    0.8129 C   0  0  0  0  0  0  0  0  0  0  0  0
    3.6214   -2.7102    1.6147 H   0  0  0  0  0  0  0  0  0  0  0  0
    5.3417   -3.0141    1.0840 H   0  0  0  0  0  0  0  0  0  0  0  0
    3.9378   -3.0611   -0.0770 H   0  0  0  0  0  0  0  0  0  0  0  0
  1  2  1  0  0  0  0
  2  9  1  0  0  0  0
  3  2  2  0  0  0  0
  3  4  1  0  0  0  0
  4  5  1  0  0  0  0
  4  6  2  0  0  0  0
  6 23  1  0  0  0  0
  7  6  1  0  0  0  0
  7  8  1  0  0  0  0
  9  7  2  0  0  0  0
 10 19  1  0  0  0  0
 10  3  1  0  0  0  0
 10 11  1  0  0  0  0
 11 12  1  0  0  0  0
 11 14  1  0  0  0  0
 13 11  1  0  0  0  0
 15 10  1  0  0  0  0
 16 15  1  0  0  0  0
 17 15  1  0  0  0  0
 18 15  1  0  0  0  0
 19 22  1  0  0  0  0
 20 19  1  0  0  0  0
 21 19  1  0  0  0  0
 23 32  1  0  0  0  0
 23 24  1  0  0  0  0
 24 27  1  0  0  0  0
 24 25  1  0  0  0  0
 26 24  1  0  0  0  0
 28 29  1  0  0  0  0
 28 23  1  0  0  0  0
 30 28  1  0  0  0  0
 31 28  1  0  0  0  0
 32 34  1  0  0  0  0
 32 33  1  0  0  0  0
 35 32  1  0  0  0  0
 36  9  1  0  0  0  0
 36 37  1  0  0  0  0
 38 36  1  0  0  0  0
 39 38  1  0  0  0  0
 39 47  2  0  0  0  0
 40 39  1  0  0  0  0
 41 40  1  0  0  0  0
 42 40  2  0  0  0  0
 42 44  1  0  0  0  0
 43 42  1  0  0  0  0
 44 46  1  0  0  0  0
 45 44  1  0  0  0  0
 46 47  1  0  0  0  0
 46 52  2  0  0  0  0
 47 48  1  0  0  0  0
 48 49  1  0  0  0  0
 49 50  2  0  0  0  0
 49 54  1  0  0  0  0
 50 51  1  0  0  0  0
 52 50  1  0  0  0  0
 53 52  1  0  0  0  0
 54 56  1  0  0  0  0
 54 55  1  0  0  0  0
 57 54  1  0  0  0  0
M  CHG  1   1  -1
M  END
