1,4,5
 OpenBabel05122313063D

 15 14  0  0  0  0  0  0  0  0999 V2000
   -0.0796    1.6768   -0.5672 O   0  5  0  0  0  0  0  0  0  0  0  0
    1.0765    3.5748   -0.2264 O   0  0  0  0  0  0  0  0  0  0  0  0
    3.1589   -0.7108    2.1513 O   0  0  0  0  0  0  0  0  0  0  0  0
    1.5703    0.1543    0.6898 N   0  0  0  0  0  2  0  0  0  0  0  0
    0.3389   -2.0801    0.2838 N   0  0  0  0  0  0  0  0  0  0  0  0
    0.9686    2.3535   -0.1447 C   0  0  0  0  0  0  0  0  0  0  0  0
    2.0842    1.4854    0.4877 C   0  0  0  0  0  0  0  0  0  0  0  0
    2.1394   -0.7982    1.4479 C   0  0  0  0  0  0  0  0  0  0  0  0
    1.2980   -2.1047    1.4029 C   0  0  0  0  0  0  0  0  0  0  0  0
    2.4368    1.9551    1.4325 H   0  0  0  0  0  0  0  0  0  0  0  0
    2.9535    1.4994   -0.2112 H   0  0  0  0  0  0  0  0  0  0  0  0
    0.7528   -2.1943    2.3679 H   0  0  0  0  0  0  0  0  0  0  0  0
    1.9943   -2.9689    1.3523 H   0  0  0  0  0  0  0  0  0  0  0  0
   -0.5185   -2.6246    0.4440 H   0  0  0  0  0  0  0  0  0  0  0  0
    0.7563   -2.3800   -0.6378 H   0  0  0  0  0  0  0  0  0  0  0  0
  1  6  1  0  0  0  0
  2  6  2  0  0  0  0
  4  8  1  0  0  0  0
  5 14  1  0  0  0  0
  5  9  1  0  0  0  0
  6  7  1  0  0  0  0
  7  4  1  0  0  0  0
  7 10  1  0  0  0  0
  8  3  2  0  0  0  0
  9  8  1  0  0  0  0
  9 12  1  0  0  0  0
 11  7  1  0  0  0  0
 13  9  1  0  0  0  0
 15  5  1  0  0  0  0
M  CHG  1   1  -1
M  END
