1,13,23
 OpenBabel05122313063D

 30 31  0  0  0  0  0  0  0  0999 V2000
    0.4928   -2.3784   -1.4162 N   0  0  0  0  0  2  0  0  0  0  0  0
    1.6009   -3.1289   -1.3522 C   0  0  0  0  0  3  0  0  0  0  0  0
    2.2445   -2.9735   -0.4698 H   0  0  0  0  0  0  0  0  0  0  0  0
    1.9466   -4.0611   -2.3408 C   0  0  0  0  0  0  0  0  0  0  0  0
    2.8688   -4.6513   -2.2481 H   0  0  0  0  0  0  0  0  0  0  0  0
    1.0848   -4.2114   -3.4415 C   0  0  0  0  0  0  0  0  0  0  0  0
    1.3186   -4.9327   -4.2388 H   0  0  0  0  0  0  0  0  0  0  0  0
   -0.0737   -3.4328   -3.5139 C   0  0  0  0  0  0  0  0  0  0  0  0
   -0.7692   -3.5251   -4.3612 H   0  0  0  0  0  0  0  0  0  0  0  0
   -0.3529   -2.5109   -2.4797 C   0  0  0  0  0  0  0  0  0  0  0  0
   -1.5329   -1.6531   -2.4921 C   0  0  0  0  0  3  0  0  0  0  0  0
   -2.2294   -1.7134   -3.3493 H   0  0  0  0  0  0  0  0  0  0  0  0
   -1.6946   -0.8350   -1.4843 N   0  0  0  0  0  2  0  0  0  0  0  0
   -2.6567    0.0970   -1.2221 C   0  0  0  0  0  0  0  0  0  0  0  0
   -3.7990    0.3681   -2.0260 C   0  0  0  0  0  0  0  0  0  0  0  0
   -3.9668   -0.2054   -2.9505 H   0  0  0  0  0  0  0  0  0  0  0  0
   -4.6993    1.3455   -1.6444 C   0  0  0  0  0  0  0  0  0  0  0  0
   -5.5936    1.5793   -2.2384 H   0  0  0  0  0  0  0  0  0  0  0  0
   -4.4798    2.0863   -0.4412 C   0  0  0  0  0  0  0  0  0  0  0  0
   -3.3723    1.8475    0.3667 C   0  0  0  0  0  0  0  0  0  0  0  0
   -3.2141    2.4235    1.2878 H   0  0  0  0  0  0  0  0  0  0  0  0
   -2.4097    0.8465    0.0142 C   0  0  0  0  0  0  0  0  0  0  0  0
   -1.3688    0.6164    0.7422 O   0  5  0  0  0  0  0  0  0  0  0  0
   -5.5039    3.1289   -0.0986 C   0  0  0  0  0  0  0  0  0  0  0  0
   -6.4879    3.3627   -0.7792 O   0  0  0  0  0  0  0  0  0  0  0  0
   -5.2116    3.7791    1.0497 O   0  0  0  0  0  0  0  0  0  0  0  0
   -6.1511    4.7921    1.4362 C   0  0  0  0  0  0  0  0  0  0  0  0
   -6.2255    5.5757    0.6559 H   0  0  0  0  0  0  0  0  0  0  0  0
   -5.7693    5.2194    2.3798 H   0  0  0  0  0  0  0  0  0  0  0  0
   -7.1588    4.3553    1.5859 H   0  0  0  0  0  0  0  0  0  0  0  0
  1  2  1  0  0  0  0
  2  3  1  0  0  0  0
  4  5  1  0  0  0  0
  4  2  1  0  0  0  0
  6  4  2  0  0  0  0
  7  6  1  0  0  0  0
  8  6  1  0  0  0  0
  8 10  2  0  0  0  0
  9  8  1  0  0  0  0
 10  1  1  0  0  0  0
 11 10  1  0  0  0  0
 11 13  1  0  0  0  0
 12 11  1  0  0  0  0
 13 14  1  0  0  0  0
 14 22  1  0  0  0  0
 15 17  1  0  0  0  0
 15 14  2  0  0  0  0
 16 15  1  0  0  0  0
 17 19  2  0  0  0  0
 18 17  1  0  0  0  0
 19 24  1  0  0  0  0
 19 20  1  0  0  0  0
 20 21  1  0  0  0  0
 22 20  2  0  0  0  0
 22 23  1  0  0  0  0
 24 26  1  0  0  0  0
 25 24  2  0  0  0  0
 26 27  1  0  0  0  0
 27 30  1  0  0  0  0
 27 29  1  0  0  0  0
 28 27  1  0  0  0  0
M  CHG  1  23  -1
M  END
