1,4,7
 OpenBabel05122313063D

 35 37  0  0  1  0  0  0  0  0999 V2000
   -0.3270    1.3323   -0.7317 N   0  0  0  0  0  2  0  0  0  0  0  0
    0.3684    2.3971   -0.9933 C   0  0  0  0  0  3  0  0  0  0  0  0
   -0.1827    3.3443   -1.1956 H   0  0  0  0  0  0  0  0  0  0  0  0
   -2.0188   -0.6624    0.0298 O   0  0  0  0  0  1  0  0  0  0  0  0
   -1.6681    1.4569   -0.7581 N   0  0  0  0  0  0  0  0  0  0  0  0
   -2.0832    2.3411   -1.0795 H   0  0  0  0  0  0  0  0  0  0  0  0
    2.4486    0.1865   -0.8374 N   0  0  0  0  0  2  0  0  0  0  0  0
   -3.9514    0.6674   -0.4163 C   0  0  0  0  0  0  0  0  0  0  0  0
    4.7737   -0.4851   -0.9792 C   0  0  0  0  0  0  0  0  0  0  0  0
    5.4933   -1.3160   -0.9848 H   0  0  0  0  0  0  0  0  0  0  0  0
    3.6194    4.2283   -1.2436 C   0  0  0  0  0  0  0  0  0  0  0  0
    3.9060    5.2853   -1.3423 H   0  0  0  0  0  0  0  0  0  0  0  0
   -5.9245    2.1013   -0.5391 C   0  0  0  0  0  0  0  0  0  0  0  0
   -6.3692    3.1085   -0.5856 H   0  0  0  0  0  0  0  0  0  0  0  0
   -4.8014   -0.4621   -0.3610 C   0  0  0  0  0  0  0  0  0  0  0  0
   -4.3365   -1.4552   -0.2784 H   0  0  0  0  0  0  0  0  0  0  0  0
   -6.7610    0.9644   -0.5044 C   0  0  0  0  0  0  0  0  0  0  0  0
    3.3890   -0.7565   -0.8610 C   0  0  0  0  0  0  0  0  0  0  0  0
    3.0250   -1.7981   -0.7784 H   0  0  0  0  0  0  0  0  0  0  0  0
    2.2561    3.8759   -1.1736 C   0  0  0  0  0  0  0  0  0  0  0  0
    1.4982    4.6728   -1.2301 H   0  0  0  0  0  0  0  0  0  0  0  0
   -2.4901    0.4160   -0.3495 C   0  0  1  0  0  3  0  0  0  0  0  0
   -6.1854   -0.3223   -0.4122 C   0  0  0  0  0  0  0  0  0  0  0  0
   -6.8509   -1.1964   -0.3780 H   0  0  0  0  0  0  0  0  0  0  0  0
    5.1779    0.8333   -1.0694 C   0  0  0  0  0  0  0  0  0  0  0  0
    6.2430    1.1031   -1.1450 H   0  0  0  0  0  0  0  0  0  0  0  0
    2.8093    1.4972   -0.9655 C   0  0  0  0  0  0  0  0  0  0  0  0
    4.5836    3.2350   -1.1988 C   0  0  0  0  0  3  0  0  0  0  0  0
    5.6545    3.4811   -1.2650 H   0  0  0  0  0  0  0  0  0  0  0  0
   -4.5360    1.9498   -0.4948 C   0  0  0  0  0  0  0  0  0  0  0  0
   -3.9188    2.8622   -0.4828 H   0  0  0  0  0  0  0  0  0  0  0  0
    1.8157    2.5485   -1.0285 C   0  0  0  0  0  0  0  0  0  0  0  0
    4.2022    1.8692   -1.0758 C   0  0  0  0  0  0  0  0  0  0  0  0
   -8.1107    1.0471   -0.5476 O   0  0  0  0  0  0  0  0  0  0  0  0
   -8.3723    1.9856   -0.6022 H   0  0  0  0  0  0  0  0  0  0  0  0
  2  1  1  0  0  0  0
  3  2  1  0  0  0  0
  5  1  1  0  0  0  0
  5 22  1  0  0  0  0
  6  5  1  0  0  0  0
  8 15  1  0  0  0  0
  8 22  1  0  0  0  0
  9 18  2  0  0  0  0
 10  9  1  0  0  0  0
 11 28  1  0  0  0  0
 11 20  2  0  0  0  0
 12 11  1  0  0  0  0
 13 17  2  0  0  0  0
 13 30  1  0  0  0  0
 14 13  1  0  0  0  0
 15 16  1  0  0  0  0
 17 23  1  0  0  0  0
 18  7  1  0  0  0  0
 18 19  1  0  0  0  0
 20 32  1  0  0  0  0
 21 20  1  0  0  0  0
 22  4  1  6  0  0  0
 23 24  1  0  0  0  0
 23 15  2  0  0  0  0
 25  9  1  0  0  0  0
 26 25  1  0  0  0  0
 27  7  1  0  0  0  0
 28 33  1  0  0  0  0
 29 28  1  0  0  0  0
 30 31  1  0  0  0  0
 30  8  2  0  0  0  0
 32  2  1  0  0  0  0
 32 27  2  0  0  0  0
 33 25  2  0  0  0  0
 33 27  1  0  0  0  0
 34 17  1  0  0  0  0
 35 34  1  0  0  0  0
M  END
