1,2,3
 OpenBabel05122313063D

 33 35  0  0  1  0  0  0  0  0999 V2000
   -1.6383    0.5333   -1.3179 O   0  5  0  0  0  0  0  0  0  0  0  0
   -1.2794   -1.2874    0.8393 N   0  0  0  0  0  2  0  0  0  0  0  0
    1.1487   -0.4605    1.6302 N   0  0  0  0  0  2  0  0  0  0  0  0
   -2.8678    0.1450   -1.2757 C   0  0  0  0  0  0  0  0  0  0  0  0
   -3.7595    0.6480   -2.2959 C   0  0  0  0  0  0  0  0  0  0  0  0
   -3.3142    1.3210   -3.0432 H   0  0  0  0  0  0  0  0  0  0  0  0
   -5.0881    0.3104   -2.3304 C   0  0  0  0  0  0  0  0  0  0  0  0
   -5.7396    0.7154   -3.1214 H   0  0  0  0  0  0  0  0  0  0  0  0
   -5.6755   -0.5535   -1.3467 C   0  0  0  0  0  0  0  0  0  0  0  0
   -7.0624   -0.8545   -1.3870 C   0  0  0  0  0  0  0  0  0  0  0  0
   -7.6689   -0.4223   -2.1980 H   0  0  0  0  0  0  0  0  0  0  0  0
   -7.6485   -1.6698   -0.4258 C   0  0  0  0  0  0  0  0  0  0  0  0
   -8.7236   -1.8974   -0.4641 H   0  0  0  0  0  0  0  0  0  0  0  0
   -6.8446   -2.1906    0.6116 C   0  0  0  0  0  0  0  0  0  0  0  0
   -7.2979   -2.8207    1.3918 H   0  0  0  0  0  0  0  0  0  0  0  0
   -5.4810   -1.9063    0.6701 C   0  0  0  0  0  0  0  0  0  0  0  0
   -4.9100   -2.3104    1.5179 H   0  0  0  0  0  0  0  0  0  0  0  0
   -4.8421   -1.0984   -0.3103 C   0  0  0  0  0  0  0  0  0  0  0  0
   -3.4087   -0.7891   -0.3020 C   0  0  0  0  0  0  0  0  0  0  0  0
   -2.5661   -1.4854    0.6102 C   0  0  0  0  0  3  0  0  0  0  0  0
   -3.0459   -2.3120    1.1740 H   0  0  0  0  0  0  0  0  0  0  0  0
   -0.5847   -2.1894    1.7280 C   0  0  0  0  0  0  0  0  0  0  0  0
   -0.3875   -3.1733    1.2343 H   0  0  0  0  0  0  0  0  0  0  0  0
   -1.1846   -2.4383    2.6359 H   0  0  0  0  0  0  0  0  0  0  0  0
    0.7546   -1.6290    2.1726 C   0  0  1  0  0  3  0  0  0  0  0  0
    1.5628   -2.3110    3.1006 C   0  0  0  0  0  0  0  0  0  0  0  0
    1.2186   -3.2631    3.5320 H   0  0  0  0  0  0  0  0  0  0  0  0
    2.7969   -1.7607    3.4630 C   0  0  0  0  0  0  0  0  0  0  0  0
    3.4451   -2.2781    4.1860 H   0  0  0  0  0  0  0  0  0  0  0  0
    3.1937   -0.5377    2.8959 C   0  0  0  0  0  0  0  0  0  0  0  0
    4.1536   -0.0692    3.1545 H   0  0  0  0  0  0  0  0  0  0  0  0
    2.3325    0.0775    1.9849 C   0  0  0  0  0  0  0  0  0  0  0  0
    2.5897    1.0380    1.5113 H   0  0  0  0  0  0  0  0  0  0  0  0
  1  4  1  0  0  0  0
  2 22  1  0  0  0  0
  3 32  1  0  0  0  0
  3 25  1  0  0  0  0
  4 19  1  0  0  0  0
  5  4  2  0  0  0  0
  6  5  1  0  0  0  0
  7  5  1  0  0  0  0
  7  9  2  0  0  0  0
  8  7  1  0  0  0  0
  9 18  1  0  0  0  0
 10  9  1  0  0  0  0
 10 12  2  0  0  0  0
 11 10  1  0  0  0  0
 12 14  1  0  0  0  0
 13 12  1  0  0  0  0
 14 16  2  0  0  0  0
 14 15  1  0  0  0  0
 16 17  1  0  0  0  0
 18 19  2  0  0  0  0
 18 16  1  0  0  0  0
 19 20  1  0  0  0  0
 20  2  1  0  0  0  0
 20 21  1  0  0  0  0
 22 24  1  0  0  0  0
 23 22  1  0  0  0  0
 25 22  1  6  0  0  0
 25 26  1  0  0  0  0
 26 28  2  0  0  0  0
 26 27  1  0  0  0  0
 28 29  1  0  0  0  0
 30 31  1  0  0  0  0
 30 28  1  0  0  0  0
 32 30  2  0  0  0  0
 33 32  1  0  0  0  0
M  CHG  1   1  -1
M  END
