1,2,4
 OpenBabel05122313063D

 26 27  0  0  0  0  0  0  0  0999 V2000
    1.6598   -1.2424    0.0001 O   0  5  0  0  0  0  0  0  0  0  0  0
   -2.1248    0.1691   -0.0000 N   0  0  0  0  0  2  0  0  0  0  0  0
   -0.5902    1.9900   -0.0001 N   0  0  0  0  0  0  0  0  0  0  0  0
    0.2565    1.0059   -0.0000 N   0  0  0  0  0  2  0  0  0  0  0  0
   -3.3785   -0.3134    0.0000 C   0  0  0  0  0  0  0  0  0  0  0  0
   -4.4914    0.5383    0.0001 C   0  0  0  0  0  0  0  0  0  0  0  0
   -4.2812    1.9278    0.0001 C   0  0  0  0  0  0  0  0  0  0  0  0
   -2.9775    2.4333    0.0000 C   0  0  0  0  0  0  0  0  0  0  0  0
   -1.8897    1.5362   -0.0000 C   0  0  0  0  0  0  0  0  0  0  0  0
    1.6236    1.1556    0.0000 C   0  0  0  0  0  0  0  0  0  0  0  0
    2.3117    2.3975   -0.0000 C   0  0  0  0  0  0  0  0  0  0  0  0
    3.6956    2.3723   -0.0000 C   0  0  0  0  0  0  0  0  0  0  0  0
    4.3970    1.1278   -0.0000 C   0  0  0  0  0  0  0  0  0  0  0  0
    3.7574   -0.1083    0.0000 C   0  0  0  0  0  0  0  0  0  0  0  0
    2.3167   -0.1197    0.0001 C   0  0  0  0  0  0  0  0  0  0  0  0
    4.4788   -1.4233    0.0000 C   0  0  0  0  0  0  0  0  0  0  0  0
   -3.4476   -1.4140   -0.0000 H   0  0  0  0  0  0  0  0  0  0  0  0
   -5.5027    0.1092    0.0001 H   0  0  0  0  0  0  0  0  0  0  0  0
   -5.1368    2.6195    0.0001 H   0  0  0  0  0  0  0  0  0  0  0  0
   -2.7620    3.5097   -0.0000 H   0  0  0  0  0  0  0  0  0  0  0  0
    1.7318    3.3302   -0.0000 H   0  0  0  0  0  0  0  0  0  0  0  0
    4.2663    3.3123   -0.0000 H   0  0  0  0  0  0  0  0  0  0  0  0
    5.4989    1.1437   -0.0000 H   0  0  0  0  0  0  0  0  0  0  0  0
    4.1922   -2.0295   -0.8843 H   0  0  0  0  0  0  0  0  0  0  0  0
    4.1923   -2.0294    0.8845 H   0  0  0  0  0  0  0  0  0  0  0  0
    5.5763   -1.2848   -0.0001 H   0  0  0  0  0  0  0  0  0  0  0  0
  1 15  1  0  0  0  0
  2  5  1  0  0  0  0
  3  9  2  0  0  0  0
  3  4  1  0  0  0  0
  4 10  1  0  0  0  0
  5  6  2  0  0  0  0
  6 18  1  0  0  0  0
  7  6  1  0  0  0  0
  7 19  1  0  0  0  0
  8  7  2  0  0  0  0
  9  2  1  0  0  0  0
  9  8  1  0  0  0  0
 10 15  1  0  0  0  0
 11 10  2  0  0  0  0
 12 11  1  0  0  0  0
 13 12  2  0  0  0  0
 13 14  1  0  0  0  0
 14 16  1  0  0  0  0
 14 15  2  0  0  0  0
 16 25  1  0  0  0  0
 17  5  1  0  0  0  0
 20  8  1  0  0  0  0
 21 11  1  0  0  0  0
 22 12  1  0  0  0  0
 23 13  1  0  0  0  0
 24 16  1  0  0  0  0
 26 16  1  0  0  0  0
M  CHG  1   1  -1
M  END
