1,2,5
 OpenBabel05122313063D

 38 39  0  0  0  0  0  0  0  0999 V2000
   -1.8756    0.5748    0.0019 N   0  0  0  0  0  2  0  0  0  0  0  0
    0.6442    1.1362    0.6965 N   0  0  0  0  0  2  0  0  0  0  0  0
    1.9432    1.3343    0.9755 N   0  0  0  0  0  0  0  0  0  0  0  0
    4.9783    0.2334   -0.0379 N   0  3  0  0  0  0  0  0  0  0  0  0
    2.1550   -0.9845    0.6186 O   0  5  0  0  0  0  0  0  0  0  0  0
   -1.5906    1.8382    0.3525 C   0  0  0  0  0  0  0  0  0  0  0  0
   -2.5903    2.8559    0.3855 C   0  0  0  0  0  0  0  0  0  0  0  0
   -2.3117    3.8792    0.6772 H   0  0  0  0  0  0  0  0  0  0  0  0
   -3.8919    2.5299    0.0513 C   0  0  0  0  0  0  0  0  0  0  0  0
   -4.6858    3.2929    0.0681 H   0  0  0  0  0  0  0  0  0  0  0  0
   -4.2190    1.1944   -0.3181 C   0  0  0  0  0  0  0  0  0  0  0  0
   -5.5319    0.7804   -0.6766 C   0  0  0  0  0  3  0  0  0  0  0  0
   -6.3450    1.5228   -0.6665 H   0  0  0  0  0  0  0  0  0  0  0  0
   -5.7783   -0.5386   -1.0293 C   0  0  0  0  0  0  0  0  0  0  0  0
   -6.7963   -0.8542   -1.3025 H   0  0  0  0  0  0  0  0  0  0  0  0
   -4.7224   -1.4914   -1.0334 C   0  0  0  0  0  0  0  0  0  0  0  0
   -4.9359   -2.5360   -1.3052 H   0  0  0  0  0  0  0  0  0  0  0  0
   -3.4313   -1.1251   -0.6897 C   0  0  0  0  0  0  0  0  0  0  0  0
   -2.6053   -1.8516   -0.6718 H   0  0  0  0  0  0  0  0  0  0  0  0
   -3.1491    0.2240   -0.3262 C   0  0  0  0  0  0  0  0  0  0  0  0
   -0.2004    2.1289    0.6952 C   0  0  0  0  0  3  0  0  0  0  0  0
    0.1223    3.1575    0.9417 H   0  0  0  0  0  0  0  0  0  0  0  0
    2.6070    0.1544    0.8974 C   0  0  0  0  0  0  0  0  0  0  0  0
    4.0905    0.3052    1.2023 C   0  0  0  0  0  0  0  0  0  0  0  0
    4.2744    1.2903    1.6681 H   0  0  0  0  0  0  0  0  0  0  0  0
    4.4219   -0.5124    1.8706 H   0  0  0  0  0  0  0  0  0  0  0  0
    6.3812    0.5202    0.3989 C   0  0  0  0  0  0  0  0  0  0  0  0
    6.6752   -0.2124    1.1724 H   0  0  0  0  0  0  0  0  0  0  0  0
    6.4270    1.5431    0.8140 H   0  0  0  0  0  0  0  0  0  0  0  0
    7.0541    0.4355   -0.4734 H   0  0  0  0  0  0  0  0  0  0  0  0
    4.9167   -1.1359   -0.6655 C   0  0  0  0  0  0  0  0  0  0  0  0
    5.6517   -1.1624   -1.4904 H   0  0  0  0  0  0  0  0  0  0  0  0
    3.9001   -1.2927   -1.0739 H   0  0  0  0  0  0  0  0  0  0  0  0
    5.1632   -1.8892    0.1034 H   0  0  0  0  0  0  0  0  0  0  0  0
    4.5412    1.2619   -1.0529 C   0  0  0  0  0  0  0  0  0  0  0  0
    5.3517    1.3723   -1.7960 H   0  0  0  0  0  0  0  0  0  0  0  0
    4.3452    2.2147   -0.5303 H   0  0  0  0  0  0  0  0  0  0  0  0
    3.6284    0.8880   -1.5667 H   0  0  0  0  0  0  0  0  0  0  0  0
  1  6  1  0  0  0  0
  2  3  1  0  0  0  0
  4 27  1  0  0  0  0
  4 24  1  0  0  0  0
  5 23  1  0  0  0  0
  6  7  2  0  0  0  0
  6 21  1  0  0  0  0
  7  8  1  0  0  0  0
  9 10  1  0  0  0  0
  9  7  1  0  0  0  0
 11  9  2  0  0  0  0
 12 13  1  0  0  0  0
 12 11  1  0  0  0  0
 14 12  1  0  0  0  0
 15 14  1  0  0  0  0
 16 14  2  0  0  0  0
 16 18  1  0  0  0  0
 17 16  1  0  0  0  0
 18 19  1  0  0  0  0
 18 20  2  0  0  0  0
 20 11  1  0  0  0  0
 20  1  1  0  0  0  0
 21  2  1  0  0  0  0
 21 22  1  0  0  0  0
 23  3  2  0  0  0  0
 23 24  1  0  0  0  0
 24 25  1  0  0  0  0
 24 26  1  0  0  0  0
 27 29  1  0  0  0  0
 27 28  1  0  0  0  0
 30 27  1  0  0  0  0
 31  4  1  0  0  0  0
 31 34  1  0  0  0  0
 32 31  1  0  0  0  0
 33 31  1  0  0  0  0
 35 37  1  0  0  0  0
 35  4  1  0  0  0  0
 36 35  1  0  0  0  0
 38 35  1  0  0  0  0
M  CHG  2   4   1   5  -1
M  END
