1,2,3
 OpenBabel05122313063D

 33 34  0  0  1  0  0  0  0  0999 V2000
    0.8187    1.9739    1.5536 O   0  5  0  0  0  0  0  0  0  0  0  0
   -1.3715    1.5192   -0.2100 N   0  0  0  0  0  2  0  0  0  0  0  0
   -1.4337   -0.8906    0.9702 N   0  0  0  0  0  2  0  0  0  0  0  0
    0.8690    3.0825    0.9180 C   0  0  0  0  0  0  0  0  0  0  0  0
    0.0971    3.4110   -0.2346 C   0  0  0  0  0  0  0  0  0  0  0  0
    0.3276    4.3711   -0.7166 H   0  0  0  0  0  0  0  0  0  0  0  0
   -1.0347    2.7187   -0.7239 C   0  0  2  0  0  3  0  0  0  0  0  0
   -2.5863    0.8698   -0.2323 C   0  0  0  0  0  0  0  0  0  0  0  0
   -2.5931   -0.4436    0.4028 C   0  0  0  0  0  0  0  0  0  0  0  0
   -1.3461   -2.1008    1.5379 C   0  0  0  0  0  0  0  0  0  0  0  0
   -2.4787   -2.9614    1.5658 C   0  0  0  0  0  0  0  0  0  0  0  0
   -2.3851   -3.9564    2.0239 H   0  0  0  0  0  0  0  0  0  0  0  0
   -3.6814   -2.5295    1.0336 C   0  0  0  0  0  0  0  0  0  0  0  0
   -4.5722   -3.1765    1.0625 H   0  0  0  0  0  0  0  0  0  0  0  0
   -3.7862   -1.2406    0.4385 C   0  0  0  0  0  0  0  0  0  0  0  0
   -4.9940   -0.7283   -0.1098 C   0  0  0  0  0  3  0  0  0  0  0  0
   -5.9044   -1.3450   -0.0850 H   0  0  0  0  0  0  0  0  0  0  0  0
   -4.9977    0.5472   -0.6569 C   0  0  0  0  0  0  0  0  0  0  0  0
   -5.9310    0.9641   -1.0651 H   0  0  0  0  0  0  0  0  0  0  0  0
   -3.8255    1.3355   -0.7187 C   0  0  0  0  0  0  0  0  0  0  0  0
   -3.9033    2.3358   -1.1539 H   0  0  0  0  0  0  0  0  0  0  0  0
   -0.0258   -2.4919    2.1307 C   0  0  0  0  0  0  0  0  0  0  0  0
    0.7879   -2.2100    1.4256 H   0  0  0  0  0  0  0  0  0  0  0  0
    0.0197   -3.5739    2.3528 H   0  0  0  0  0  0  0  0  0  0  0  0
    0.1567   -1.9363    3.0751 H   0  0  0  0  0  0  0  0  0  0  0  0
   -1.8224    3.3912   -1.8271 C   0  0  0  0  0  0  0  0  0  0  0  0
   -2.2143    2.6519   -2.5524 H   0  0  0  0  0  0  0  0  0  0  0  0
   -1.1794    4.1138   -2.3633 H   0  0  0  0  0  0  0  0  0  0  0  0
   -2.6859    3.9614   -1.4236 H   0  0  0  0  0  0  0  0  0  0  0  0
    1.8315    4.1121    1.4684 C   0  0  0  0  0  0  0  0  0  0  0  0
    1.6145    4.2678    2.5446 H   0  0  0  0  0  0  0  0  0  0  0  0
    1.7868    5.0816    0.9393 H   0  0  0  0  0  0  0  0  0  0  0  0
    2.8650    3.7108    1.4105 H   0  0  0  0  0  0  0  0  0  0  0  0
  3 10  1  0  0  0  0
  4 30  1  0  0  0  0
  4  1  1  0  0  0  0
  5  4  2  0  0  0  0
  6  5  1  0  0  0  0
  7  5  1  1  0  0  0
  7  2  1  0  0  0  0
  8  2  1  0  0  0  0
  8  9  2  0  0  0  0
  9 15  1  0  0  0  0
  9  3  1  0  0  0  0
 10 11  2  0  0  0  0
 10 22  1  0  0  0  0
 11 12  1  0  0  0  0
 13 14  1  0  0  0  0
 13 11  1  0  0  0  0
 15 13  2  0  0  0  0
 16 17  1  0  0  0  0
 16 15  1  0  0  0  0
 18 16  1  0  0  0  0
 19 18  1  0  0  0  0
 20 18  2  0  0  0  0
 20  8  1  0  0  0  0
 21 20  1  0  0  0  0
 22 24  1  0  0  0  0
 22 25  1  0  0  0  0
 23 22  1  0  0  0  0
 26 29  1  0  0  0  0
 26  7  1  0  0  0  0
 27 26  1  0  0  0  0
 28 26  1  0  0  0  0
 30 31  1  0  0  0  0
 32 30  1  0  0  0  0
 33 30  1  0  0  0  0
M  CHG  1   1  -1
M  END
