1,2,3
 OpenBabel05122313063D

 30 31  0  0  0  0  0  0  0  0999 V2000
   -1.1200    1.1899   -1.4979 N   0  0  0  0  0  2  0  0  0  0  0  0
   -1.3233   -0.7172    0.0373 O   0  5  0  0  0  0  0  0  0  0  0  0
    0.9751    2.1922   -0.5860 N   0  0  0  0  0  2  0  0  0  0  0  0
   -2.2305    0.4771   -1.7249 N   0  0  0  0  0  0  0  0  0  0  0  0
    0.4304    2.8670   -1.6633 C   0  0  0  0  0  0  0  0  0  0  0  0
   -0.7971    2.3035   -2.1635 C   0  0  0  0  0  0  0  0  0  0  0  0
   -2.2592   -0.5424   -0.8470 C   0  0  0  0  0  0  0  0  0  0  0  0
    2.2355    4.4753   -1.6270 N   0  0  0  0  0  0  0  0  0  0  0  0
   -6.6244   -4.1278   -0.9316 O   0  0  0  0  0  0  0  0  0  0  0  0
   -6.5235   -4.7975   -0.2293 H   0  0  0  0  0  0  0  0  0  0  0  0
   -4.4384   -1.3454   -1.8170 C   0  0  0  0  0  0  0  0  0  0  0  0
   -4.3875   -0.5242   -2.5453 H   0  0  0  0  0  0  0  0  0  0  0  0
   -4.5213   -3.4285    0.0623 C   0  0  0  0  0  0  0  0  0  0  0  0
   -4.5605   -4.2491    0.7979 H   0  0  0  0  0  0  0  0  0  0  0  0
   -3.3929   -1.4793   -0.8728 C   0  0  0  0  0  0  0  0  0  0  0  0
    1.1036    4.0091   -2.1599 C   0  0  0  0  0  0  0  0  0  0  0  0
    0.6892    4.5485   -3.0291 H   0  0  0  0  0  0  0  0  0  0  0  0
    2.7453    3.7903   -0.5851 C   0  0  0  0  0  0  0  0  0  0  0  0
    3.6780    4.1656   -0.1323 H   0  0  0  0  0  0  0  0  0  0  0  0
   -5.5104   -2.2361   -1.8252 C   0  0  0  0  0  0  0  0  0  0  0  0
   -6.3283   -2.1434   -2.5540 H   0  0  0  0  0  0  0  0  0  0  0  0
   -3.4504   -2.5329    0.0652 C   0  0  0  0  0  0  0  0  0  0  0  0
   -2.6348   -2.6304    0.7955 H   0  0  0  0  0  0  0  0  0  0  0  0
    2.1316    2.6388   -0.0698 C   0  0  0  0  0  0  0  0  0  0  0  0
    2.5620    2.0644    0.7642 H   0  0  0  0  0  0  0  0  0  0  0  0
   -5.5601   -3.2871   -0.8831 C   0  0  0  0  0  0  0  0  0  0  0  0
   -1.6254    2.8741   -3.2672 C   0  0  0  0  0  0  0  0  0  0  0  0
   -1.0785    2.8575   -4.2340 H   0  0  0  0  0  0  0  0  0  0  0  0
   -1.9041    3.9293   -3.0644 H   0  0  0  0  0  0  0  0  0  0  0  0
   -2.5459    2.2725   -3.3759 H   0  0  0  0  0  0  0  0  0  0  0  0
  3 24  1  0  0  0  0
  4  1  1  0  0  0  0
  4  7  2  0  0  0  0
  5  3  1  0  0  0  0
  6  5  2  0  0  0  0
  6  1  1  0  0  0  0
  7  2  1  0  0  0  0
  8 18  1  0  0  0  0
  9 26  1  0  0  0  0
  9 10  1  0  0  0  0
 11 15  1  0  0  0  0
 12 11  1  0  0  0  0
 13 22  1  0  0  0  0
 13 14  1  0  0  0  0
 15  7  1  0  0  0  0
 15 22  2  0  0  0  0
 16  5  1  0  0  0  0
 16  8  2  0  0  0  0
 17 16  1  0  0  0  0
 18 19  1  0  0  0  0
 18 24  2  0  0  0  0
 20 11  2  0  0  0  0
 20 26  1  0  0  0  0
 21 20  1  0  0  0  0
 22 23  1  0  0  0  0
 24 25  1  0  0  0  0
 26 13  2  0  0  0  0
 27 29  1  0  0  0  0
 27  6  1  0  0  0  0
 28 27  1  0  0  0  0
 30 27  1  0  0  0  0
M  CHG  1   2  -1
M  END
