1,2,4
 OpenBabel05122313063D

 30 31  0  0  0  0  0  0  0  0999 V2000
    1.6028   -1.0543    0.2815 O   0  5  0  0  0  0  0  0  0  0  0  0
    1.2803    0.6296   -1.6367 N   0  0  0  0  0  2  0  0  0  0  0  0
   -0.3392    2.1596   -2.3638 C   0  0  0  0  0  0  0  0  0  0  0  0
   -1.0602    1.8139   -1.2637 N   0  0  0  0  0  2  0  0  0  0  0  0
    2.4427   -0.0140   -1.6435 N   0  0  0  0  0  0  0  0  0  0  0  0
    0.9683    1.5244   -2.5530 C   0  0  0  0  0  0  0  0  0  0  0  0
    2.5128   -0.8866   -0.5853 C   0  0  0  0  0  0  0  0  0  0  0  0
    4.8157   -1.5208   -1.4279 C   0  0  0  0  0  0  0  0  0  0  0  0
    4.6784   -0.8202   -2.2613 H   0  0  0  0  0  0  0  0  0  0  0  0
   -0.8852    3.1128   -3.2647 C   0  0  0  0  0  0  0  0  0  0  0  0
   -0.3185    3.4225   -4.1591 H   0  0  0  0  0  0  0  0  0  0  0  0
   -2.0858    3.6707   -3.0848 N   0  0  0  0  0  0  0  0  0  0  0  0
    3.9232   -2.5584    0.5983 C   0  0  0  0  0  0  0  0  0  0  0  0
    3.1084   -2.6652    1.3272 H   0  0  0  0  0  0  0  0  0  0  0  0
    3.7784   -1.6662   -0.4792 C   0  0  0  0  0  0  0  0  0  0  0  0
    5.1026   -3.3100    0.7379 C   0  0  0  0  0  0  0  0  0  0  0  0
   -2.2630    2.3635   -1.0809 C   0  0  0  0  0  0  0  0  0  0  0  0
   -2.8238    2.0500   -0.1828 H   0  0  0  0  0  0  0  0  0  0  0  0
    5.9874   -2.2721   -1.2830 C   0  0  0  0  0  0  0  0  0  0  0  0
    6.8025   -2.1691   -2.0154 H   0  0  0  0  0  0  0  0  0  0  0  0
    5.1936   -4.1592    1.7989 O   0  0  0  0  0  0  0  0  0  0  0  0
    6.0569   -4.6105    1.7584 H   0  0  0  0  0  0  0  0  0  0  0  0
   -2.7814    3.2947   -1.9981 C   0  0  0  0  0  0  0  0  0  0  0  0
   -3.7775    3.7439   -1.8462 H   0  0  0  0  0  0  0  0  0  0  0  0
    1.8648    1.8769   -3.7009 C   0  0  0  0  0  0  0  0  0  0  0  0
    2.7888    1.2754   -3.6258 H   0  0  0  0  0  0  0  0  0  0  0  0
    2.1328    2.9544   -3.6967 H   0  0  0  0  0  0  0  0  0  0  0  0
    1.3783    1.6656   -4.6763 H   0  0  0  0  0  0  0  0  0  0  0  0
    6.1380   -3.1636   -0.2088 C   0  0  0  0  0  0  0  0  0  0  0  0
    7.0641   -3.7531   -0.1011 H   0  0  0  0  0  0  0  0  0  0  0  0
  3  4  1  0  0  0  0
  4 17  1  0  0  0  0
  5  2  1  0  0  0  0
  5  7  2  0  0  0  0
  6  3  2  0  0  0  0
  6  2  1  0  0  0  0
  7 15  1  0  0  0  0
  7  1  1  0  0  0  0
  8 19  2  0  0  0  0
  8 15  1  0  0  0  0
  9  8  1  0  0  0  0
 10 12  2  0  0  0  0
 10  3  1  0  0  0  0
 11 10  1  0  0  0  0
 12 23  1  0  0  0  0
 13 16  1  0  0  0  0
 13 14  1  0  0  0  0
 15 13  2  0  0  0  0
 16 21  1  0  0  0  0
 17 18  1  0  0  0  0
 19 29  1  0  0  0  0
 20 19  1  0  0  0  0
 22 21  1  0  0  0  0
 23 24  1  0  0  0  0
 23 17  2  0  0  0  0
 25 27  1  0  0  0  0
 25 26  1  0  0  0  0
 25  6  1  0  0  0  0
 28 25  1  0  0  0  0
 29 30  1  0  0  0  0
 29 16  2  0  0  0  0
M  CHG  1   1  -1
M  END
