1,2,3
 OpenBabel05122313063D

 32 33  0  0  1  0  0  0  0  0999 V2000
   -0.4726    0.9999    0.1235 O   0  5  0  0  0  0  0  0  0  0  0  0
   -0.3143   -1.6935   -0.0547 N   0  0  0  0  0  2  0  0  0  0  0  0
   -2.9153   -1.8625   -0.1690 N   0  0  0  0  0  0  0  0  0  0  0  0
   -3.6138   -1.5008   -0.8344 H   0  0  0  0  0  0  0  0  0  0  0  0
    0.8244    0.9706    0.1012 C   0  0  0  0  0  0  0  0  0  0  0  0
    1.4842    2.2514    0.1710 C   0  0  0  0  0  0  0  0  0  0  0  0
    0.8314    3.1338    0.2326 H   0  0  0  0  0  0  0  0  0  0  0  0
    2.8524    2.3480    0.1597 C   0  0  0  0  0  0  0  0  0  0  0  0
    3.3337    3.3375    0.2148 H   0  0  0  0  0  0  0  0  0  0  0  0
    3.6935    1.1877    0.0743 C   0  0  0  0  0  0  0  0  0  0  0  0
    5.1077    1.3138    0.0607 C   0  0  0  0  0  0  0  0  0  0  0  0
    5.5427    2.3239    0.1192 H   0  0  0  0  0  0  0  0  0  0  0  0
    5.9301    0.1962   -0.0245 C   0  0  0  0  0  0  0  0  0  0  0  0
    7.0246    0.3063   -0.0343 H   0  0  0  0  0  0  0  0  0  0  0  0
    5.3411   -1.0861   -0.0997 C   0  0  0  0  0  0  0  0  0  0  0  0
    5.9798   -1.9799   -0.1691 H   0  0  0  0  0  0  0  0  0  0  0  0
    3.9560   -1.2344   -0.0882 C   0  0  0  0  0  0  0  0  0  0  0  0
    3.5448   -2.2520   -0.1513 H   0  0  0  0  0  0  0  0  0  0  0  0
    3.0850   -0.1135   -0.0002 C   0  0  1  0  0  3  0  0  0  0  0  0
    1.6298   -0.2192    0.0187 C   0  0  0  0  0  0  0  0  0  0  0  0
    0.9904   -1.4868   -0.0427 C   0  0  0  0  0  0  0  0  0  0  0  0
    1.6274   -2.3891   -0.0843 H   0  0  0  0  0  0  0  0  0  0  0  0
   -0.8260   -3.0657   -0.0443 C   0  0  0  0  0  0  0  0  0  0  0  0
   -0.1389   -3.7684   -0.5636 H   0  0  0  0  0  0  0  0  0  0  0  0
   -0.9240   -3.4262    1.0054 H   0  0  0  0  0  0  0  0  0  0  0  0
   -2.1903   -3.0294   -0.7208 C   0  0  0  0  0  0  0  0  0  0  0  0
   -2.7582   -3.9748   -0.5746 H   0  0  0  0  0  0  0  0  0  0  0  0
   -2.0635   -2.8592   -1.8082 H   0  0  0  0  0  0  0  0  0  0  0  0
   -3.5811   -2.0833    1.1285 C   0  0  0  0  0  0  0  0  0  0  0  0
   -4.3428   -2.8910    1.0611 H   0  0  0  0  0  0  0  0  0  0  0  0
   -4.0621   -1.1339    1.4273 H   0  0  0  0  0  0  0  0  0  0  0  0
   -2.8349   -2.3586    1.8972 H   0  0  0  0  0  0  0  0  0  0  0  0
  2 23  1  0  0  0  0
  2 21  1  0  0  0  0
  3 29  1  0  0  0  0
  4  3  1  0  0  0  0
  5  1  1  0  0  0  0
  5  6  2  0  0  0  0
  6  7  1  0  0  0  0
  8  6  1  0  0  0  0
  8  9  1  0  0  0  0
 10  8  2  0  0  0  0
 11 10  1  0  0  0  0
 11 12  1  0  0  0  0
 13 11  2  0  0  0  0
 14 13  1  0  0  0  0
 15 17  2  0  0  0  0
 15 13  1  0  0  0  0
 16 15  1  0  0  0  0
 18 17  1  0  0  0  0
 19 17  1  1  0  0  0
 19 20  1  0  0  0  0
 19 10  1  0  0  0  0
 20  5  1  0  0  0  0
 21 20  2  0  0  0  0
 22 21  1  0  0  0  0
 23 25  1  0  0  0  0
 24 23  1  0  0  0  0
 26 27  1  0  0  0  0
 26  3  1  0  0  0  0
 26 23  1  0  0  0  0
 28 26  1  0  0  0  0
 29 31  1  0  0  0  0
 29 32  1  0  0  0  0
 30 29  1  0  0  0  0
M  CHG  1   1  -1
M  END
