2,3,4
 OpenBabel05122313063D

 46 49  0  0  1  0  0  0  0  0999 V2000
    2.0972    3.0495   -0.8140 O   0  0  0  0  0  0  0  0  0  0  0  0
    0.4576   -1.4010   -0.2478 O   0  0  0  0  0  1  0  0  0  0  0  0
   -1.3264    0.8931   -0.3253 N   0  0  0  0  0  2  0  0  0  0  0  0
   -3.4421   -0.5886    0.2449 N   0  0  0  0  0  2  0  0  0  0  0  0
    3.4449    1.6568    0.5497 C   0  0  0  0  0  0  0  0  0  0  0  0
    4.6129    2.4012    0.2841 C   0  0  0  0  0  0  0  0  0  0  0  0
    4.5858    3.1288   -0.5406 H   0  0  0  0  0  0  0  0  0  0  0  0
    5.7666    2.2086    1.0517 C   0  0  0  0  0  0  0  0  0  0  0  0
    6.6798    2.7802    0.8260 H   0  0  0  0  0  0  0  0  0  0  0  0
    5.7575    1.2879    2.1143 C   0  0  0  0  0  0  0  0  0  0  0  0
    6.6637    1.1367    2.7207 H   0  0  0  0  0  0  0  0  0  0  0  0
    4.5884    0.5677    2.4077 C   0  0  0  0  0  0  0  0  0  0  0  0
    4.5724   -0.1398    3.2504 H   0  0  0  0  0  0  0  0  0  0  0  0
    3.4379    0.7476    1.6277 C   0  0  0  0  0  0  0  0  0  0  0  0
    2.5216    0.1889    1.8687 H   0  0  0  0  0  0  0  0  0  0  0  0
    2.2265    1.9400   -0.2851 C   0  0  0  0  0  0  0  0  0  0  0  0
    2.6822   -1.0568   -0.8061 C   0  0  0  0  0  0  0  0  0  0  0  0
    3.5251   -0.4092   -1.7341 C   0  0  0  0  0  0  0  0  0  0  0  0
    3.2025    0.5301   -2.2061 H   0  0  0  0  0  0  0  0  0  0  0  0
    4.7598   -0.9744   -2.0778 C   0  0  0  0  0  0  0  0  0  0  0  0
    5.4091   -0.4646   -2.8052 H   0  0  0  0  0  0  0  0  0  0  0  0
    5.1646   -2.1881   -1.4996 C   0  0  0  0  0  0  0  0  0  0  0  0
    6.1397   -2.6251   -1.7635 H   0  0  0  0  0  0  0  0  0  0  0  0
    4.3184   -2.8502   -0.5935 C   0  0  0  0  0  0  0  0  0  0  0  0
    4.6285   -3.8072   -0.1475 H   0  0  0  0  0  0  0  0  0  0  0  0
    3.0780   -2.2965   -0.2582 C   0  0  0  0  0  0  0  0  0  0  0  0
    2.3979   -2.8070    0.4387 H   0  0  0  0  0  0  0  0  0  0  0  0
    1.3498   -0.5006   -0.4323 C   0  0  1  0  0  3  0  0  0  0  0  0
    1.1275    0.9211   -0.3668 C   0  0  0  0  0  0  0  0  0  0  0  0
   -0.1564    1.5110   -0.4048 C   0  0  0  0  0  0  0  0  0  0  0  0
   -0.1416    2.6136   -0.4932 H   0  0  0  0  0  0  0  0  0  0  0  0
   -4.4475   -1.4080    0.5616 C   0  0  0  0  0  0  0  0  0  0  0  0
   -4.1490   -2.4513    0.7623 H   0  0  0  0  0  0  0  0  0  0  0  0
   -5.7846   -0.9468    0.6219 C   0  0  0  0  0  0  0  0  0  0  0  0
   -6.5788   -1.6584    0.8879 H   0  0  0  0  0  0  0  0  0  0  0  0
   -6.0696    0.3814    0.3422 C   0  0  0  0  0  0  0  0  0  0  0  0
   -7.1032    0.7587    0.3790 H   0  0  0  0  0  0  0  0  0  0  0  0
   -5.1963    2.6533   -0.3077 C   0  0  0  0  0  3  0  0  0  0  0  0
   -6.2105    3.0783   -0.2895 H   0  0  0  0  0  0  0  0  0  0  0  0
   -4.0963    3.4386   -0.6337 C   0  0  0  0  0  0  0  0  0  0  0  0
   -4.2392    4.5012   -0.8806 H   0  0  0  0  0  0  0  0  0  0  0  0
   -2.7843    2.9064   -0.6626 C   0  0  0  0  0  0  0  0  0  0  0  0
   -1.9453    3.5603   -0.9375 H   0  0  0  0  0  0  0  0  0  0  0  0
   -2.5601    1.5599   -0.3541 C   0  0  0  0  0  0  0  0  0  0  0  0
   -5.0142    1.2751    0.0009 C   0  0  0  0  0  0  0  0  0  0  0  0
   -3.6886    0.7390   -0.0321 C   0  0  0  0  0  0  0  0  0  0  0  0
  1 16  2  0  0  0  0
  4 32  1  0  0  0  0
  5 14  1  0  0  0  0
  6  5  2  0  0  0  0
  6  8  1  0  0  0  0
  7  6  1  0  0  0  0
  8 10  2  0  0  0  0
  9  8  1  0  0  0  0
 10 12  1  0  0  0  0
 10 11  1  0  0  0  0
 12 13  1  0  0  0  0
 14 15  1  0  0  0  0
 14 12  2  0  0  0  0
 16  5  1  0  0  0  0
 17 28  1  0  0  0  0
 17 26  1  0  0  0  0
 18 17  2  0  0  0  0
 19 18  1  0  0  0  0
 20 18  1  0  0  0  0
 20 22  2  0  0  0  0
 21 20  1  0  0  0  0
 22 24  1  0  0  0  0
 23 22  1  0  0  0  0
 24 26  2  0  0  0  0
 24 25  1  0  0  0  0
 26 27  1  0  0  0  0
 28 29  1  0  0  0  0
 28  2  1  6  0  0  0
 29 16  1  0  0  0  0
 30 29  2  0  0  0  0
 30  3  1  0  0  0  0
 31 30  1  0  0  0  0
 32 34  2  0  0  0  0
 32 33  1  0  0  0  0
 34 35  1  0  0  0  0
 36 37  1  0  0  0  0
 36 34  1  0  0  0  0
 38 39  1  0  0  0  0
 38 45  1  0  0  0  0
 40 38  1  0  0  0  0
 41 40  1  0  0  0  0
 42 40  2  0  0  0  0
 42 44  1  0  0  0  0
 43 42  1  0  0  0  0
 44  3  1  0  0  0  0
 44 46  2  0  0  0  0
 45 36  2  0  0  0  0
 46 45  1  0  0  0  0
 46  4  1  0  0  0  0
M  END
