1,2,3
 OpenBabel05122313063D

 25 26  0  0  0  0  0  0  0  0999 V2000
   -1.2022    1.1527    0.5713 O   0  5  0  0  0  0  0  0  0  0  0  0
   -1.7507   -0.7714   -1.1797 N   0  0  0  0  0  2  0  0  0  0  0  0
    0.6934   -1.4884   -1.4037 N   0  0  0  0  0  0  0  0  0  0  0  0
   -2.3585    1.7009    0.2924 C   0  0  0  0  0  0  0  0  0  0  0  0
   -0.1768   -2.2701   -2.1473 C   0  0  0  0  0  0  0  0  0  0  0  0
   -3.2228    1.1225   -0.6973 C   0  0  0  0  0  0  0  0  0  0  0  0
   -2.8618   -0.1095   -1.3464 C   0  0  0  0  0  3  0  0  0  0  0  0
   -3.6267   -0.5403   -2.0281 H   0  0  0  0  0  0  0  0  0  0  0  0
   -2.7844    2.8748    0.9682 C   0  0  0  0  0  0  0  0  0  0  0  0
   -2.1173    3.3001    1.7313 H   0  0  0  0  0  0  0  0  0  0  0  0
   -4.0103    3.4608    0.6555 C   0  0  0  0  0  0  0  0  0  0  0  0
   -4.3202    4.3753    1.1849 H   0  0  0  0  0  0  0  0  0  0  0  0
   -4.4656    1.7420   -0.9886 C   0  0  0  0  0  0  0  0  0  0  0  0
   -5.1182    1.2840   -1.7492 H   0  0  0  0  0  0  0  0  0  0  0  0
   -4.8602    2.9018   -0.3273 C   0  0  0  0  0  0  0  0  0  0  0  0
   -5.8237    3.3764   -0.5616 H   0  0  0  0  0  0  0  0  0  0  0  0
   -1.6205   -2.0890   -1.8184 C   0  0  0  0  0  0  0  0  0  0  0  0
   -2.2794   -2.1745   -2.7108 H   0  0  0  0  0  0  0  0  0  0  0  0
   -1.9700   -2.8437   -1.0733 H   0  0  0  0  0  0  0  0  0  0  0  0
    1.9802   -1.7839   -1.8231 C   0  0  0  0  0  3  0  0  0  0  0  0
    2.8466   -1.2624   -1.4003 H   0  0  0  0  0  0  0  0  0  0  0  0
    1.9252   -2.7547   -2.8175 C   0  0  0  0  0  0  0  0  0  0  0  0
    2.7823   -3.1886   -3.3472 H   0  0  0  0  0  0  0  0  0  0  0  0
    0.5376   -3.0672   -3.0302 C   0  0  0  0  0  0  0  0  0  0  0  0
    0.1248   -3.7902   -3.7440 H   0  0  0  0  0  0  0  0  0  0  0  0
  4  1  1  0  0  0  0
  4  9  1  0  0  0  0
  5 17  1  0  0  0  0
  5  3  2  0  0  0  0
  6  4  2  0  0  0  0
  7  2  1  0  0  0  0
  7  6  1  0  0  0  0
  8  7  1  0  0  0  0
  9 10  1  0  0  0  0
 11  9  2  0  0  0  0
 11 12  1  0  0  0  0
 13  6  1  0  0  0  0
 13 15  2  0  0  0  0
 14 13  1  0  0  0  0
 15 11  1  0  0  0  0
 16 15  1  0  0  0  0
 17  2  1  0  0  0  0
 17 19  1  0  0  0  0
 18 17  1  0  0  0  0
 20  3  1  0  0  0  0
 20 21  1  0  0  0  0
 22 20  1  0  0  0  0
 23 22  1  0  0  0  0
 24 22  2  0  0  0  0
 24  5  1  0  0  0  0
 25 24  1  0  0  0  0
M  CHG  1   1  -1
M  END
