5,7,9
 OpenBabel05122313063D

 30 31  0  0  1  0  0  0  0  0999 V2000
    3.2017    0.3749   -1.4456 O   0  0  0  0  0  0  0  0  0  0  0  0
   -2.6842    4.1334    1.1069 O   0  5  0  0  0  0  0  0  0  0  0  0
    1.3435   -0.9566   -1.1010 N   0  0  0  0  0  0  0  0  0  0  0  0
    0.9951   -1.9220   -1.2051 H   0  0  0  0  0  0  0  0  0  0  0  0
   -0.8200    2.8473    1.0569 O   0  0  0  0  0  0  0  0  0  0  0  0
   -0.8337   -1.6403   -2.4018 O   0  0  0  0  0  0  0  0  0  0  0  0
   -1.6159    1.4419   -0.8862 N   0  0  0  0  0  2  0  0  0  0  0  0
    2.6976   -0.7115   -1.1594 C   0  0  0  0  0  0  0  0  0  0  0  0
    0.3838    0.0009   -1.2845 N   0  0  0  0  0  2  0  0  0  0  0  0
   -0.7357   -0.4998   -1.9004 C   0  0  0  0  0  0  0  0  0  0  0  0
   -1.8692    0.4653   -1.7767 C   0  0  1  0  0  3  0  0  0  0  0  0
   -2.0061    3.2186    0.6434 C   0  0  0  0  0  0  0  0  0  0  0  0
   -2.5146    2.3581   -0.5037 C   0  0  0  0  0  0  0  0  0  0  0  0
    3.5322   -1.9121   -0.7972 C   0  0  0  0  0  0  0  0  0  0  0  0
   -3.1350    0.3874   -2.3718 C   0  0  0  0  0  0  0  0  0  0  0  0
   -3.3462   -0.4366   -3.0674 H   0  0  0  0  0  0  0  0  0  0  0  0
   -4.0909    1.3622   -2.0303 C   0  0  0  0  0  0  0  0  0  0  0  0
   -5.0922    1.3249   -2.4865 H   0  0  0  0  0  0  0  0  0  0  0  0
    4.7994   -2.0338   -1.4020 C   0  0  0  0  0  0  0  0  0  0  0  0
    5.1080   -1.2548   -2.1152 H   0  0  0  0  0  0  0  0  0  0  0  0
    5.2197   -4.0708   -0.1439 C   0  0  0  0  0  0  0  0  0  0  0  0
    5.8787   -4.9159    0.1103 H   0  0  0  0  0  0  0  0  0  0  0  0
   -3.7855    2.3615   -1.0888 C   0  0  0  0  0  0  0  0  0  0  0  0
   -4.5087    3.1207   -0.7591 H   0  0  0  0  0  0  0  0  0  0  0  0
    3.1273   -2.8614    0.1655 C   0  0  0  0  0  0  0  0  0  0  0  0
    2.1814   -2.7262    0.7145 H   0  0  0  0  0  0  0  0  0  0  0  0
    5.6337   -3.1130   -1.0869 C   0  0  0  0  0  0  0  0  0  0  0  0
    6.6172   -3.2079   -1.5735 H   0  0  0  0  0  0  0  0  0  0  0  0
    3.9731   -3.9353    0.4868 C   0  0  0  0  0  0  0  0  0  0  0  0
    3.6582   -4.6623    1.2515 H   0  0  0  0  0  0  0  0  0  0  0  0
  1  8  2  0  0  0  0
  4  3  1  0  0  0  0
  6 10  2  0  0  0  0
  7 13  1  0  0  0  0
  8  3  1  0  0  0  0
  8 14  1  0  0  0  0
  9  3  1  0  0  0  0
 10  9  1  0  0  0  0
 11 10  1  1  0  0  0
 11  7  1  0  0  0  0
 12  5  2  0  0  0  0
 12  2  1  0  0  0  0
 13 12  1  0  0  0  0
 14 25  1  0  0  0  0
 15 17  2  0  0  0  0
 15 11  1  0  0  0  0
 16 15  1  0  0  0  0
 17 23  1  0  0  0  0
 18 17  1  0  0  0  0
 19 27  1  0  0  0  0
 19 14  2  0  0  0  0
 20 19  1  0  0  0  0
 21 22  1  0  0  0  0
 21 29  1  0  0  0  0
 23 24  1  0  0  0  0
 23 13  2  0  0  0  0
 25 29  2  0  0  0  0
 25 26  1  0  0  0  0
 27 21  2  0  0  0  0
 28 27  1  0  0  0  0
 29 30  1  0  0  0  0
M  CHG  1   2  -1
M  END
