49,51,58
 OpenBabel05122313063D

 58 61  0  0  1  0  0  0  0  0999 V2000
    0.3467    2.9094    0.2031 C   0  0  1  0  0  0  0  0  0  0  0  0
    0.8260    3.9114    0.2698 H   0  0  0  0  0  0  0  0  0  0  0  0
    0.1669    2.3672    1.6381 C   0  0  2  0  0  0  0  0  0  0  0  0
    1.1707    2.0144    1.9784 H   0  0  0  0  0  0  0  0  0  0  0  0
   -0.8293    1.1850    1.7093 C   0  0  1  0  0  0  0  0  0  0  0  0
   -1.1603    1.0801    2.7714 H   0  0  0  0  0  0  0  0  0  0  0  0
   -2.0619    1.5199    0.8682 C   0  0  1  0  0  0  0  0  0  0  0  0
   -2.5855    2.3776    1.3569 H   0  0  0  0  0  0  0  0  0  0  0  0
   -1.6671    1.9538   -0.5447 C   0  0  1  0  0  0  0  0  0  0  0  0
   -1.1226    1.1227   -1.0489 H   0  0  0  0  0  0  0  0  0  0  0  0
   -2.9453    2.2139   -1.3288 C   0  0  0  0  0  0  0  0  0  0  0  0
   -3.5090    3.0666   -0.8739 H   0  0  0  0  0  0  0  0  0  0  0  0
   -2.7329    2.4550   -2.3882 H   0  0  0  0  0  0  0  0  0  0  0  0
   -4.0497    0.5769   -0.0215 C   0  0  2  0  0  0  0  0  0  0  0  0
   -4.6911    1.3491    0.4815 H   0  0  0  0  0  0  0  0  0  0  0  0
   -4.7531   -0.7508   -0.1386 C   0  0  0  0  0  0  0  0  0  0  0  0
   -6.0267   -0.9524    0.4153 C   0  0  0  0  0  0  0  0  0  0  0  0
   -6.5329   -0.1233    0.9349 H   0  0  0  0  0  0  0  0  0  0  0  0
   -6.6533   -2.2042    0.3054 C   0  0  0  0  0  0  0  0  0  0  0  0
   -7.6532   -2.3581    0.7389 H   0  0  0  0  0  0  0  0  0  0  0  0
   -6.0033   -3.2551   -0.3593 C   0  0  0  0  0  0  0  0  0  0  0  0
   -6.4937   -4.2368   -0.4478 H   0  0  0  0  0  0  0  0  0  0  0  0
   -4.7273   -3.0534   -0.9143 C   0  0  0  0  0  0  0  0  0  0  0  0
   -4.2181   -3.8766   -1.4382 H   0  0  0  0  0  0  0  0  0  0  0  0
   -4.0997   -1.8054   -0.8069 C   0  0  0  0  0  0  0  0  0  0  0  0
   -3.1015   -1.6355   -1.2406 H   0  0  0  0  0  0  0  0  0  0  0  0
    1.5734    2.4873   -1.8074 C   0  0  0  0  0  0  0  0  0  0  0  0
    0.7113    2.4254   -2.5013 H   0  0  0  0  0  0  0  0  0  0  0  0
    2.3957    1.8305   -2.1406 H   0  0  0  0  0  0  0  0  0  0  0  0
    1.9239    3.5398   -1.7443 H   0  0  0  0  0  0  0  0  0  0  0  0
    0.2251   -0.9361    2.3682 C   0  0  0  0  0  0  0  0  0  0  0  0
   -0.6330   -1.2934    2.9836 H   0  0  0  0  0  0  0  0  0  0  0  0
    0.8838   -0.3335    3.0298 H   0  0  0  0  0  0  0  0  0  0  0  0
    1.0276   -2.1226    1.8228 C   0  0  0  0  0  0  0  0  0  0  0  0
    1.4120   -2.7458    2.6625 H   0  0  0  0  0  0  0  0  0  0  0  0
    0.3544   -2.7616    1.2058 H   0  0  0  0  0  0  0  0  0  0  0  0
    3.3264   -1.9551    1.1479 C   0  0  0  0  0  3  0  0  0  0  0  0
    3.5588   -2.7105    1.9352 H   0  0  0  0  0  0  0  0  0  0  0  0
    4.4538   -1.4551    0.4137 C   0  0  0  0  0  0  0  0  0  0  0  0
    5.7329   -1.9936    0.7406 C   0  0  0  0  0  0  0  0  0  0  0  0
    5.7805   -2.7727    1.5199 H   0  0  0  0  0  0  0  0  0  0  0  0
    6.8939   -1.5695    0.1108 C   0  0  0  0  0  0  0  0  0  0  0  0
    7.8690   -2.0020    0.3766 H   0  0  0  0  0  0  0  0  0  0  0  0
    6.7965   -0.5640   -0.8845 C   0  0  0  0  0  0  0  0  0  0  0  0
    7.7083   -0.2157   -1.3955 H   0  0  0  0  0  0  0  0  0  0  0  0
    5.5711   -0.0099   -1.2290 C   0  0  0  0  0  0  0  0  0  0  0  0
    5.4943    0.7685   -2.0025 H   0  0  0  0  0  0  0  0  0  0  0  0
    4.3447   -0.4224   -0.6077 C   0  0  0  0  0  0  0  0  0  0  0  0
   -0.2218   -0.0782    1.2609 N   0  0  0  0  0  0  0  0  0  0  0  0
   -0.9376   -0.5872    0.7120 H   0  0  0  0  0  0  0  0  0  0  0  0
    2.0814   -1.6047    0.9820 N   0  0  0  0  0  2  0  0  0  0  0  0
    1.2097    2.0210   -0.4960 O   0  0  0  0  0  0  0  0  0  0  0  0
   -0.3002    3.4713    2.3923 O   0  0  0  0  0  0  0  0  0  0  0  0
   -0.3842    3.1814    3.3186 H   0  0  0  0  0  0  0  0  0  0  0  0
   -0.8617    3.1326   -0.4741 O   0  0  0  0  0  0  0  0  0  0  0  0
   -3.7145    1.0168   -1.3163 O   0  0  0  0  0  0  0  0  0  0  0  0
   -2.8940    0.3722    0.8030 O   0  0  0  0  0  0  0  0  0  0  0  0
    3.2361    0.1361   -0.9766 O   0  5  0  0  0  0  0  0  0  0  0  0
  1  2  1  1  0  0  0
  1  3  1  0  0  0  0
  3  5  1  0  0  0  0
  3  4  1  1  0  0  0
  3 53  1  0  0  0  0
  5  6  1  1  0  0  0
  7  8  1  1  0  0  0
  7  5  1  0  0  0  0
  9 10  1  6  0  0  0
  9 55  1  0  0  0  0
  9  7  1  0  0  0  0
 11 56  1  0  0  0  0
 11 12  1  0  0  0  0
 11  9  1  0  0  0  0
 13 11  1  0  0  0  0
 14 15  1  1  0  0  0
 14 57  1  0  0  0  0
 16 14  1  0  0  0  0
 16 17  1  0  0  0  0
 17 18  1  0  0  0  0
 19 17  2  0  0  0  0
 19 20  1  0  0  0  0
 21 19  1  0  0  0  0
 22 21  1  0  0  0  0
 23 25  1  0  0  0  0
 23 21  2  0  0  0  0
 24 23  1  0  0  0  0
 25 16  2  0  0  0  0
 26 25  1  0  0  0  0
 27 30  1  0  0  0  0
 27 52  1  0  0  0  0
 28 27  1  0  0  0  0
 29 27  1  0  0  0  0
 31 32  1  0  0  0  0
 31 33  1  0  0  0  0
 34 31  1  0  0  0  0
 34 35  1  0  0  0  0
 36 34  1  0  0  0  0
 37 38  1  0  0  0  0
 39 40  1  0  0  0  0
 39 37  1  0  0  0  0
 40 41  1  0  0  0  0
 42 43  1  0  0  0  0
 42 40  2  0  0  0  0
 44 42  1  0  0  0  0
 45 44  1  0  0  0  0
 46 44  2  0  0  0  0
 46 48  1  0  0  0  0
 47 46  1  0  0  0  0
 48 39  2  0  0  0  0
 49  5  1  0  0  0  0
 49 31  1  0  0  0  0
 50 49  1  0  0  0  0
 51 37  1  0  0  0  0
 51 34  1  0  0  0  0
 52  1  1  0  0  0  0
 53 54  1  0  0  0  0
 55  1  1  0  0  0  0
 56 14  1  0  0  0  0
 57  7  1  0  0  0  0
 58 48  1  0  0  0  0
M  CHG  1  58  -1
M  END
