1,4,8
 OpenBabel05122313063D

 35 36  0  0  1  0  0  0  0  0999 V2000
   -1.0057    0.9018    0.9367 O   0  5  0  0  0  0  0  0  0  0  0  0
   -5.3886    2.4906    1.2961 O   0  0  0  0  0  0  0  0  0  0  0  0
   -6.0622    3.0034    0.8105 H   0  0  0  0  0  0  0  0  0  0  0  0
    1.7552   -0.8593   -1.1123 N   0  0  0  0  0  2  0  0  0  0  0  0
    3.2863   -0.0805   -2.7821 N   0  0  0  0  0  0  0  0  0  0  0  0
    3.5491    0.6874   -3.4073 H   0  0  0  0  0  0  0  0  0  0  0  0
    1.4479    1.2122   -2.2159 N   0  0  0  0  0  2  0  0  0  0  0  0
    0.3194    1.2450   -1.4374 N   0  0  0  0  0  2  0  0  0  0  0  0
    2.1429    0.1289   -2.0175 C   0  0  1  0  0  3  0  0  0  0  0  0
    2.3176   -2.0714   -1.1923 C   0  0  2  0  0  3  0  0  0  0  0  0
    3.4397   -2.3028   -2.0456 C   0  0  0  0  0  0  0  0  0  0  0  0
    3.9423   -1.2726   -2.8249 C   0  0  0  0  0  0  0  0  0  0  0  0
   -0.6727    2.0581   -1.7785 C   0  0  1  0  0  3  0  0  0  0  0  0
   -0.5384    2.9010   -3.0200 C   0  0  0  0  0  0  0  0  0  0  0  0
   -1.8748    2.1397   -0.9803 C   0  0  0  0  0  0  0  0  0  0  0  0
   -1.9829    1.5398    0.3329 C   0  0  0  0  0  0  0  0  0  0  0  0
   -3.1883    1.6843    1.0605 C   0  0  0  0  0  0  0  0  0  0  0  0
   -4.2706    2.4020    0.5415 C   0  0  0  0  0  0  0  0  0  0  0  0
   -4.1771    2.9941   -0.7463 C   0  0  0  0  0  0  0  0  0  0  0  0
   -3.0026    2.8578   -1.4716 C   0  0  0  0  0  0  0  0  0  0  0  0
    1.7709   -3.2073   -0.3868 C   0  0  0  0  0  0  0  0  0  0  0  0
    5.1364   -1.3794   -3.7166 C   0  0  0  0  0  0  0  0  0  0  0  0
    3.9142   -3.2906   -2.0689 H   0  0  0  0  0  0  0  0  0  0  0  0
   -1.2293    2.5333   -3.8068 H   0  0  0  0  0  0  0  0  0  0  0  0
    0.4880    2.8479   -3.4169 H   0  0  0  0  0  0  0  0  0  0  0  0
   -0.8058    3.9542   -2.8110 H   0  0  0  0  0  0  0  0  0  0  0  0
   -3.2631    1.2147    2.0498 H   0  0  0  0  0  0  0  0  0  0  0  0
   -5.0300    3.5511   -1.1642 H   0  0  0  0  0  0  0  0  0  0  0  0
   -2.9551    3.3160   -2.4685 H   0  0  0  0  0  0  0  0  0  0  0  0
    0.6656   -3.1917   -0.4075 H   0  0  0  0  0  0  0  0  0  0  0  0
    2.0936   -3.1150    0.6702 H   0  0  0  0  0  0  0  0  0  0  0  0
    2.1411   -4.1719   -0.7767 H   0  0  0  0  0  0  0  0  0  0  0  0
    5.9178   -0.6504   -3.4162 H   0  0  0  0  0  0  0  0  0  0  0  0
    4.8649   -1.1588   -4.7702 H   0  0  0  0  0  0  0  0  0  0  0  0
    5.5702   -2.3935   -3.6741 H   0  0  0  0  0  0  0  0  0  0  0  0
  3  2  1  0  0  0  0
  5  9  1  0  0  0  0
  6  5  1  0  0  0  0
  7  8  1  0  0  0  0
  9  7  1  6  0  0  0
  9  4  1  0  0  0  0
 10  4  1  0  0  0  0
 10 21  1  6  0  0  0
 11 10  1  0  0  0  0
 12  5  1  0  0  0  0
 12 11  2  0  0  0  0
 13  8  1  6  0  0  0
 13 15  1  0  0  0  0
 14 26  1  0  0  0  0
 14 13  1  0  0  0  0
 15 16  1  0  0  0  0
 16  1  1  0  0  0  0
 16 17  2  0  0  0  0
 17 27  1  0  0  0  0
 18 17  1  0  0  0  0
 18  2  1  0  0  0  0
 19 18  2  0  0  0  0
 20 15  2  0  0  0  0
 20 19  1  0  0  0  0
 21 31  1  0  0  0  0
 22 35  1  0  0  0  0
 22 33  1  0  0  0  0
 22 12  1  0  0  0  0
 23 11  1  0  0  0  0
 24 14  1  0  0  0  0
 25 14  1  0  0  0  0
 28 19  1  0  0  0  0
 29 20  1  0  0  0  0
 30 21  1  0  0  0  0
 32 21  1  0  0  0  0
 34 22  1  0  0  0  0
M  CHG  1   1  -1
M  END
