1,2,3
 OpenBabel05122313063D

 23 23  0  0  0  0  0  0  0  0999 V2000
    0.6309    0.1627    1.1902 O   0  5  0  0  0  0  0  0  0  0  0  0
    1.6011   -1.1935   -1.0384 N   0  0  0  0  0  2  0  0  0  0  0  0
   -0.7017   -2.4894   -1.3201 N   0  0  0  0  0  0  0  0  0  0  0  0
   -0.7716   -3.4600   -0.9780 H   0  0  0  0  0  0  0  0  0  0  0  0
   -1.6597   -2.1917   -1.5557 H   0  0  0  0  0  0  0  0  0  0  0  0
    1.5505    1.0496    0.8816 C   0  0  0  0  0  0  0  0  0  0  0  0
    2.4853   -0.2311   -1.0635 C   0  0  0  0  0  3  0  0  0  0  0  0
    3.2926   -0.2923   -1.8218 H   0  0  0  0  0  0  0  0  0  0  0  0
    2.5009    0.9036   -0.1940 C   0  0  0  0  0  0  0  0  0  0  0  0
    3.4934    1.9062   -0.3996 C   0  0  0  0  0  0  0  0  0  0  0  0
    4.2090    1.7732   -1.2265 H   0  0  0  0  0  0  0  0  0  0  0  0
    1.6101   -2.2773   -2.0122 C   0  0  0  0  0  0  0  0  0  0  0  0
    1.9379   -3.2269   -1.5263 H   0  0  0  0  0  0  0  0  0  0  0  0
    2.3162   -2.0815   -2.8467 H   0  0  0  0  0  0  0  0  0  0  0  0
    1.6436    2.2162    1.6929 C   0  0  0  0  0  0  0  0  0  0  0  0
    0.9115    2.3291    2.5051 H   0  0  0  0  0  0  0  0  0  0  0  0
    3.5625    3.0304    0.4103 C   0  0  0  0  0  0  0  0  0  0  0  0
    4.3284    3.7991    0.2374 H   0  0  0  0  0  0  0  0  0  0  0  0
    2.6253    3.1752    1.4621 C   0  0  0  0  0  0  0  0  0  0  0  0
    2.6656    4.0661    2.1076 H   0  0  0  0  0  0  0  0  0  0  0  0
    0.1777   -2.4148   -2.5184 C   0  0  0  0  0  0  0  0  0  0  0  0
   -0.1054   -1.4969   -3.0671 H   0  0  0  0  0  0  0  0  0  0  0  0
    0.0479   -3.2920   -3.1849 H   0  0  0  0  0  0  0  0  0  0  0  0
  3  4  1  0  0  0  0
  5  3  1  0  0  0  0
  6  1  1  0  0  0  0
  6 15  1  0  0  0  0
  7  2  1  0  0  0  0
  7  9  1  0  0  0  0
  8  7  1  0  0  0  0
  9  6  2  0  0  0  0
 10  9  1  0  0  0  0
 10 17  2  0  0  0  0
 11 10  1  0  0  0  0
 12 13  1  0  0  0  0
 12  2  1  0  0  0  0
 14 12  1  0  0  0  0
 15 16  1  0  0  0  0
 17 19  1  0  0  0  0
 18 17  1  0  0  0  0
 19 15  2  0  0  0  0
 19 20  1  0  0  0  0
 21 12  1  0  0  0  0
 21  3  1  0  0  0  0
 22 21  1  0  0  0  0
 23 21  1  0  0  0  0
M  CHG  1   1  -1
M  END
