1,4,5
 OpenBabel05122313063D

 37 37  0  0  0  0  0  0  0  0999 V2000
   -0.2959   -1.5712   -0.3498 O   0  5  0  0  0  0  0  0  0  0  0  0
   -4.9911   -0.8767    0.1797 O   0  0  0  0  0  0  0  0  0  0  0  0
   -2.0392    2.8490   -0.0407 O   0  0  0  0  0  0  0  0  0  0  0  0
    1.2969    0.6202   -0.5030 N   0  0  0  0  0  2  0  0  0  0  0  0
    3.6120   -0.5825   -0.0787 N   0  0  0  0  0  0  0  0  0  0  0  0
    4.1197   -1.0905    0.6574 H   0  0  0  0  0  0  0  0  0  0  0  0
    4.0148   -0.8658   -0.9827 H   0  0  0  0  0  0  0  0  0  0  0  0
   -1.3042   -0.7630   -0.2047 C   0  0  0  0  0  0  0  0  0  0  0  0
   -2.6131   -1.3050   -0.0924 C   0  0  0  0  0  0  0  0  0  0  0  0
   -2.7015   -2.3970   -0.1116 H   0  0  0  0  0  0  0  0  0  0  0  0
   -3.7104   -0.4514    0.0500 C   0  0  0  0  0  0  0  0  0  0  0  0
   -3.5583    0.9640    0.0740 C   0  0  0  0  0  0  0  0  0  0  0  0
   -4.4619    1.5716    0.1940 H   0  0  0  0  0  0  0  0  0  0  0  0
   -2.2863    1.5108   -0.0487 C   0  0  0  0  0  0  0  0  0  0  0  0
   -1.1265    0.6698   -0.1935 C   0  0  0  0  0  0  0  0  0  0  0  0
    0.1511    1.2577   -0.4027 C   0  0  0  0  0  3  0  0  0  0  0  0
    0.1602    2.3622   -0.5014 H   0  0  0  0  0  0  0  0  0  0  0  0
    2.4939    1.3918   -0.7853 C   0  0  0  0  0  0  0  0  0  0  0  0
    2.3319    2.4841   -0.6456 H   0  0  0  0  0  0  0  0  0  0  0  0
    2.7899    1.2381   -1.8502 H   0  0  0  0  0  0  0  0  0  0  0  0
    3.6433    0.8885    0.1134 C   0  0  0  0  0  0  0  0  0  0  0  0
   -5.2436   -2.2726    0.1697 C   0  0  0  0  0  0  0  0  0  0  0  0
   -4.9246   -2.7400   -0.7876 H   0  0  0  0  0  0  0  0  0  0  0  0
   -6.3364   -2.3916    0.2867 H   0  0  0  0  0  0  0  0  0  0  0  0
   -4.7268   -2.7887    1.0082 H   0  0  0  0  0  0  0  0  0  0  0  0
   -3.1347    3.7385    0.0751 C   0  0  0  0  0  0  0  0  0  0  0  0
   -3.8531    3.6174   -0.7658 H   0  0  0  0  0  0  0  0  0  0  0  0
   -2.7124    4.7599    0.0486 H   0  0  0  0  0  0  0  0  0  0  0  0
   -3.6801    3.5942    1.0338 H   0  0  0  0  0  0  0  0  0  0  0  0
    3.3528    1.1848    1.5897 C   0  0  0  0  0  0  0  0  0  0  0  0
    2.4266    0.6742    1.9176 H   0  0  0  0  0  0  0  0  0  0  0  0
    3.2484    2.2757    1.7500 H   0  0  0  0  0  0  0  0  0  0  0  0
    4.1830    0.8227    2.2301 H   0  0  0  0  0  0  0  0  0  0  0  0
    4.9825    1.4918   -0.3249 C   0  0  0  0  0  0  0  0  0  0  0  0
    5.8134    1.0921    0.2905 H   0  0  0  0  0  0  0  0  0  0  0  0
    4.9766    2.5944   -0.2090 H   0  0  0  0  0  0  0  0  0  0  0  0
    5.1980    1.2637   -1.3896 H   0  0  0  0  0  0  0  0  0  0  0  0
  1  8  1  0  0  0  0
  3 26  1  0  0  0  0
  4 16  1  0  0  0  0
  5 21  1  0  0  0  0
  5  6  1  0  0  0  0
  7  5  1  0  0  0  0
  8 15  2  0  0  0  0
  8  9  1  0  0  0  0
  9 11  2  0  0  0  0
 10  9  1  0  0  0  0
 11 12  1  0  0  0  0
 11  2  1  0  0  0  0
 12 13  1  0  0  0  0
 14  3  1  0  0  0  0
 14 12  2  0  0  0  0
 15 14  1  0  0  0  0
 16 15  1  0  0  0  0
 17 16  1  0  0  0  0
 18 19  1  0  0  0  0
 18  4  1  0  0  0  0
 18 21  1  0  0  0  0
 20 18  1  0  0  0  0
 21 30  1  0  0  0  0
 22  2  1  0  0  0  0
 22 24  1  0  0  0  0
 22 25  1  0  0  0  0
 23 22  1  0  0  0  0
 26 29  1  0  0  0  0
 27 26  1  0  0  0  0
 28 26  1  0  0  0  0
 30 32  1  0  0  0  0
 30 31  1  0  0  0  0
 30 33  1  0  0  0  0
 34 36  1  0  0  0  0
 34 21  1  0  0  0  0
 34 35  1  0  0  0  0
 37 34  1  0  0  0  0
M  CHG  1   1  -1
M  END
