1,2,3
 OpenBabel05122313063D

 34 35  0  0  0  0  0  0  0  0999 V2000
   -1.9053    1.9304   -0.7401 N   0  0  0  0  0  2  0  0  0  0  0  0
    0.3896    3.0761    0.2334 N   0  0  0  0  0  0  0  0  0  0  0  0
   -1.2443   -0.5724    0.2942 O   0  5  0  0  0  0  0  0  0  0  0  0
    2.7266    4.7990    0.5783 O   0  0  0  0  0  0  0  0  0  0  0  0
   -6.5237   -2.4199   -1.6182 Cl  0  0  0  0  0  0  0  0  0  0  0  0
   -3.3289   -0.0392   -0.8519 C   0  0  0  0  0  0  0  0  0  0  0  0
   -2.4257   -0.9120   -0.1430 C   0  0  0  0  0  0  0  0  0  0  0  0
   -2.8728   -2.2517    0.0908 C   0  0  0  0  0  0  0  0  0  0  0  0
   -2.2049   -2.9253    0.6447 H   0  0  0  0  0  0  0  0  0  0  0  0
   -4.1063   -2.7027   -0.3579 C   0  0  0  0  0  0  0  0  0  0  0  0
   -4.4221   -3.7386   -0.1669 H   0  0  0  0  0  0  0  0  0  0  0  0
   -4.9742   -1.8326   -1.0615 C   0  0  0  0  0  0  0  0  0  0  0  0
   -4.5901   -0.5209   -1.2991 C   0  0  0  0  0  0  0  0  0  0  0  0
   -5.2672    0.1590   -1.8371 H   0  0  0  0  0  0  0  0  0  0  0  0
   -2.9943    1.3269   -1.1208 C   0  0  0  0  0  3  0  0  0  0  0  0
   -3.7313    1.9148   -1.7058 H   0  0  0  0  0  0  0  0  0  0  0  0
   -1.6076    3.2818   -1.1776 C   0  0  0  0  0  0  0  0  0  0  0  0
   -2.5324    3.8659   -1.3771 H   0  0  0  0  0  0  0  0  0  0  0  0
   -1.0366    3.2291   -2.1318 H   0  0  0  0  0  0  0  0  0  0  0  0
   -0.7778    3.9450   -0.0945 C   0  0  0  0  0  0  0  0  0  0  0  0
   -0.4638    4.9634   -0.4034 H   0  0  0  0  0  0  0  0  0  0  0  0
   -1.3806    4.0231    0.8306 H   0  0  0  0  0  0  0  0  0  0  0  0
    0.9678    3.4360    1.5602 C   0  0  0  0  0  0  0  0  0  0  0  0
    1.7076    2.6522    1.8067 H   0  0  0  0  0  0  0  0  0  0  0  0
    0.1546    3.3934    2.3089 H   0  0  0  0  0  0  0  0  0  0  0  0
    1.6836    4.7848    1.5391 C   0  0  0  0  0  0  0  0  0  0  0  0
    0.9653    5.6223    1.3533 H   0  0  0  0  0  0  0  0  0  0  0  0
    2.1496    4.9654    2.5284 H   0  0  0  0  0  0  0  0  0  0  0  0
    2.2160    4.5259   -0.7136 C   0  0  0  0  0  0  0  0  0  0  0  0
    3.0795    4.4961   -1.4078 H   0  0  0  0  0  0  0  0  0  0  0  0
    1.5490    5.3583   -1.0535 H   0  0  0  0  0  0  0  0  0  0  0  0
    1.4872    3.1813   -0.7730 C   0  0  0  0  0  0  0  0  0  0  0  0
    1.0814    2.9848   -1.7815 H   0  0  0  0  0  0  0  0  0  0  0  0
    2.2055    2.3700   -0.5490 H   0  0  0  0  0  0  0  0  0  0  0  0
  2 23  1  0  0  0  0
  4 26  1  0  0  0  0
  5 12  1  0  0  0  0
  6  7  1  0  0  0  0
  7  8  2  0  0  0  0
  7  3  1  0  0  0  0
  8  9  1  0  0  0  0
 10 11  1  0  0  0  0
 10  8  1  0  0  0  0
 12 10  2  0  0  0  0
 13 12  1  0  0  0  0
 13  6  2  0  0  0  0
 14 13  1  0  0  0  0
 15  6  1  0  0  0  0
 15  1  1  0  0  0  0
 16 15  1  0  0  0  0
 17  1  1  0  0  0  0
 17 20  1  0  0  0  0
 18 17  1  0  0  0  0
 19 17  1  0  0  0  0
 20  2  1  0  0  0  0
 20 22  1  0  0  0  0
 21 20  1  0  0  0  0
 23 24  1  0  0  0  0
 23 25  1  0  0  0  0
 26 23  1  0  0  0  0
 26 28  1  0  0  0  0
 27 26  1  0  0  0  0
 29  4  1  0  0  0  0
 30 29  1  0  0  0  0
 31 29  1  0  0  0  0
 32 29  1  0  0  0  0
 32 34  1  0  0  0  0
 32  2  1  0  0  0  0
 33 32  1  0  0  0  0
M  CHG  1   3  -1
M  END
