1,2,3
 OpenBabel05122313063D

 65 67  0  0  0  0  0  0  0  0999 V2000
   -0.1511    1.2496   -0.8954 O   0  5  0  0  0  0  0  0  0  0  0  0
   -3.4605   -0.2771    0.0322 N   0  0  0  0  0  2  0  0  0  0  0  0
   -1.2598   -1.3688   -0.8326 N   0  0  0  0  0  0  0  0  0  0  0  0
   -0.8829   -0.2835    1.8129 N   0  0  0  0  0  0  0  0  0  0  0  0
   -4.4213    0.1900    0.8638 C   0  0  0  0  0  3  0  0  0  0  0  0
   -5.6192   -0.5035    1.0582 C   0  0  0  0  0  0  0  0  0  0  0  0
   -5.8339   -1.7171    0.3869 C   0  0  0  0  0  0  0  0  0  0  0  0
   -4.8291   -2.2026   -0.4656 C   0  0  0  0  0  0  0  0  0  0  0  0
   -3.6585   -1.4565   -0.6264 C   0  0  0  0  0  0  0  0  0  0  0  0
   -2.5066   -1.8010   -1.5200 C   0  0  0  0  0  0  0  0  0  0  0  0
   -0.9576   -2.1996    0.3712 C   0  0  0  0  0  0  0  0  0  0  0  0
   -0.2340   -1.4049    1.4369 C   0  0  0  0  0  0  0  0  0  0  0  0
    0.9845   -1.8026    2.0047 C   0  0  0  0  0  0  0  0  0  0  0  0
    1.5575   -0.9904    2.9942 C   0  0  0  0  0  0  0  0  0  0  0  0
    0.8918    0.1842    3.3751 C   0  0  0  0  0  0  0  0  0  0  0  0
   -0.3255    0.4972    2.7520 C   0  0  0  0  0  0  0  0  0  0  0  0
   -0.1106   -1.3591   -1.7836 C   0  0  0  0  0  0  0  0  0  0  0  0
    1.1187   -0.7478   -1.1847 C   0  0  0  0  0  0  0  0  0  0  0  0
    2.3212   -1.4512   -1.0572 C   0  0  0  0  0  0  0  0  0  0  0  0
    3.4723   -0.8301   -0.5402 C   0  0  0  0  0  0  0  0  0  0  0  0
    3.3697    0.5399   -0.2160 C   0  0  0  0  0  0  0  0  0  0  0  0
    2.1901    1.2978   -0.3372 C   0  0  0  0  0  0  0  0  0  0  0  0
    1.0133    0.6188   -0.7904 C   0  0  0  0  0  0  0  0  0  0  0  0
    4.7725   -1.6353   -0.3647 C   0  0  0  0  0  0  0  0  0  0  0  0
    5.2201   -2.1982   -1.7327 C   0  0  0  0  0  0  0  0  0  0  0  0
    5.9168   -0.7771    0.2021 C   0  0  0  0  0  0  0  0  0  0  0  0
    2.1633    2.8106   -0.0487 C   0  0  0  0  0  0  0  0  0  0  0  0
    3.5536    3.3434    0.3428 C   0  0  0  0  0  0  0  0  0  0  0  0
    1.7047    3.5598   -1.3234 C   0  0  0  0  0  0  0  0  0  0  0  0
    1.1859    3.1283    1.1053 C   0  0  0  0  0  0  0  0  0  0  0  0
    4.5206   -2.8069    0.6122 C   0  0  0  0  0  0  0  0  0  0  0  0
   -4.1945    1.1572    1.3362 H   0  0  0  0  0  0  0  0  0  0  0  0
   -6.3758   -0.0871    1.7384 H   0  0  0  0  0  0  0  0  0  0  0  0
   -6.7677   -2.2812    0.5270 H   0  0  0  0  0  0  0  0  0  0  0  0
   -4.9478   -3.1509   -1.0094 H   0  0  0  0  0  0  0  0  0  0  0  0
   -2.5707   -1.1779   -2.4410 H   0  0  0  0  0  0  0  0  0  0  0  0
   -2.4838   -2.8788   -1.7977 H   0  0  0  0  0  0  0  0  0  0  0  0
   -1.9277   -2.5367    0.7903 H   0  0  0  0  0  0  0  0  0  0  0  0
   -0.3809   -3.1015    0.0750 H   0  0  0  0  0  0  0  0  0  0  0  0
    1.4905   -2.7142    1.6565 H   0  0  0  0  0  0  0  0  0  0  0  0
    2.5221   -1.2636    3.4476 H   0  0  0  0  0  0  0  0  0  0  0  0
    1.3104    0.8549    4.1396 H   0  0  0  0  0  0  0  0  0  0  0  0
   -0.8786    1.4187    3.0005 H   0  0  0  0  0  0  0  0  0  0  0  0
    0.0916   -2.4033   -2.1138 H   0  0  0  0  0  0  0  0  0  0  0  0
   -0.4558   -0.7757   -2.6618 H   0  0  0  0  0  0  0  0  0  0  0  0
    2.3479   -2.5089   -1.3684 H   0  0  0  0  0  0  0  0  0  0  0  0
    4.2651    1.0516    0.1540 H   0  0  0  0  0  0  0  0  0  0  0  0
    6.1533   -2.7904   -1.6279 H   0  0  0  0  0  0  0  0  0  0  0  0
    4.4498   -2.8603   -2.1763 H   0  0  0  0  0  0  0  0  0  0  0  0
    5.4105   -1.3765   -2.4521 H   0  0  0  0  0  0  0  0  0  0  0  0
    5.6644   -0.3602    1.1980 H   0  0  0  0  0  0  0  0  0  0  0  0
    6.8301   -1.3950    0.3188 H   0  0  0  0  0  0  0  0  0  0  0  0
    6.1684    0.0683   -0.4692 H   0  0  0  0  0  0  0  0  0  0  0  0
    3.9333    2.8743    1.2738 H   0  0  0  0  0  0  0  0  0  0  0  0
    4.3045    3.1816   -0.4575 H   0  0  0  0  0  0  0  0  0  0  0  0
    3.4901    4.4350    0.5250 H   0  0  0  0  0  0  0  0  0  0  0  0
    2.3785    3.3393   -2.1767 H   0  0  0  0  0  0  0  0  0  0  0  0
    0.6735    3.2688   -1.5955 H   0  0  0  0  0  0  0  0  0  0  0  0
    1.7219    4.6554   -1.1457 H   0  0  0  0  0  0  0  0  0  0  0  0
    1.1652    4.2233    1.2882 H   0  0  0  0  0  0  0  0  0  0  0  0
    0.1563    2.8033    0.8648 H   0  0  0  0  0  0  0  0  0  0  0  0
    1.5152    2.6327    2.0404 H   0  0  0  0  0  0  0  0  0  0  0  0
    4.2103   -2.4279    1.6074 H   0  0  0  0  0  0  0  0  0  0  0  0
    3.7237   -3.4833    0.2425 H   0  0  0  0  0  0  0  0  0  0  0  0
    5.4405   -3.4138    0.7468 H   0  0  0  0  0  0  0  0  0  0  0  0
  1 23  1  0  0  0  0
  2  5  1  0  0  0  0
  3 11  1  0  0  0  0
  4 16  1  0  0  0  0
  5  6  1  0  0  0  0
  5 32  1  0  0  0  0
  6 33  1  0  0  0  0
  7 34  1  0  0  0  0
  7  6  2  0  0  0  0
  8  7  1  0  0  0  0
  9  8  2  0  0  0  0
  9  2  1  0  0  0  0
 10  3  1  0  0  0  0
 10  9  1  0  0  0  0
 11 38  1  0  0  0  0
 11 12  1  0  0  0  0
 12  4  2  0  0  0  0
 12 13  1  0  0  0  0
 13 14  2  0  0  0  0
 14 15  1  0  0  0  0
 14 41  1  0  0  0  0
 15 42  1  0  0  0  0
 16 43  1  0  0  0  0
 16 15  2  0  0  0  0
 17 18  1  0  0  0  0
 17  3  1  0  0  0  0
 18 19  2  0  0  0  0
 18 23  1  0  0  0  0
 19 20  1  0  0  0  0
 20 24  1  0  0  0  0
 20 21  2  0  0  0  0
 21 47  1  0  0  0  0
 22 21  1  0  0  0  0
 22 27  1  0  0  0  0
 23 22  2  0  0  0  0
 24 26  1  0  0  0  0
 24 31  1  0  0  0  0
 25 48  1  0  0  0  0
 25 24  1  0  0  0  0
 26 52  1  0  0  0  0
 26 51  1  0  0  0  0
 27 28  1  0  0  0  0
 27 30  1  0  0  0  0
 28 56  1  0  0  0  0
 28 54  1  0  0  0  0
 29 59  1  0  0  0  0
 29 27  1  0  0  0  0
 30 60  1  0  0  0  0
 30 62  1  0  0  0  0
 31 65  1  0  0  0  0
 31 63  1  0  0  0  0
 35  8  1  0  0  0  0
 36 10  1  0  0  0  0
 37 10  1  0  0  0  0
 39 11  1  0  0  0  0
 40 13  1  0  0  0  0
 44 17  1  0  0  0  0
 45 17  1  0  0  0  0
 46 19  1  0  0  0  0
 49 25  1  0  0  0  0
 50 25  1  0  0  0  0
 53 26  1  0  0  0  0
 55 28  1  0  0  0  0
 57 29  1  0  0  0  0
 58 29  1  0  0  0  0
 61 30  1  0  0  0  0
 64 31  1  0  0  0  0
M  CHG  1   1  -1
M  END
