1,2,6
 OpenBabel05122313063D

 70 72  0  0  0  0  0  0  0  0999 V2000
   -1.1412   -0.7252   -1.8082 O   0  5  0  0  0  0  0  0  0  0  0  0
   -2.0090    1.3624   -0.2940 N   0  0  0  0  0  2  0  0  0  0  0  0
   -0.7316    1.7495   -0.5040 N   0  0  0  0  0  0  0  0  0  0  0  0
   -0.5061    3.0562   -0.5028 N   0  0  0  0  0  0  0  0  0  0  0  0
   -0.8921   -3.1782   -0.4088 N   0  0  0  0  0  0  0  0  0  0  0  0
   -2.0351   -1.2378    1.6593 N   0  0  0  0  0  0  0  0  0  0  0  0
   -0.0372   -0.4931   -1.1616 C   0  0  0  0  0  0  0  0  0  0  0  0
    0.2989    0.7769   -0.5923 C   0  0  0  0  0  0  0  0  0  0  0  0
    1.5532    1.0369   -0.0096 C   0  0  0  0  0  0  0  0  0  0  0  0
    1.7341    2.0549    0.3583 H   0  0  0  0  0  0  0  0  0  0  0  0
    2.5012    0.0140    0.1398 C   0  0  0  0  0  0  0  0  0  0  0  0
    2.1105   -1.2926   -0.2654 C   0  0  0  0  0  0  0  0  0  0  0  0
    2.7827   -2.1442   -0.0704 H   0  0  0  0  0  0  0  0  0  0  0  0
    0.8854   -1.5558   -0.8792 C   0  0  0  0  0  0  0  0  0  0  0  0
   -2.6884    2.5306   -0.1607 C   0  0  0  0  0  0  0  0  0  0  0  0
   -4.0626    2.7872    0.0595 C   0  0  0  0  0  0  0  0  0  0  0  0
   -4.7882    1.9647    0.1322 H   0  0  0  0  0  0  0  0  0  0  0  0
   -4.4392    4.1235    0.1632 C   0  0  0  0  0  0  0  0  0  0  0  0
   -5.4974    4.3724    0.3341 H   0  0  0  0  0  0  0  0  0  0  0  0
   -3.4946    5.1881    0.0460 C   0  0  0  0  0  0  0  0  0  0  0  0
   -3.8537    6.2246    0.1325 H   0  0  0  0  0  0  0  0  0  0  0  0
   -2.1419    4.9502   -0.1786 C   0  0  0  0  0  3  0  0  0  0  0  0
   -1.4117    5.7658   -0.2749 H   0  0  0  0  0  0  0  0  0  0  0  0
   -1.7347    3.5981   -0.2827 C   0  0  0  0  0  0  0  0  0  0  0  0
    3.9045    0.2576    0.7335 C   0  0  0  0  0  0  0  0  0  0  0  0
    4.1341   -0.7593    1.8778 C   0  0  0  0  0  0  0  0  0  0  0  0
    3.2927   -0.7148    2.5994 H   0  0  0  0  0  0  0  0  0  0  0  0
    5.0655   -0.5471    2.4342 H   0  0  0  0  0  0  0  0  0  0  0  0
    4.2038   -1.8002    1.5049 H   0  0  0  0  0  0  0  0  0  0  0  0
    4.0058    1.6702    1.3314 C   0  0  0  0  0  0  0  0  0  0  0  0
    3.2124    1.8335    2.0889 H   0  0  0  0  0  0  0  0  0  0  0  0
    3.9128    2.4611    0.5616 H   0  0  0  0  0  0  0  0  0  0  0  0
    4.9776    1.8092    1.8418 H   0  0  0  0  0  0  0  0  0  0  0  0
    4.8914    0.0419   -0.4642 C   0  0  0  0  0  0  0  0  0  0  0  0
    4.7974   -1.0291   -0.7475 H   0  0  0  0  0  0  0  0  0  0  0  0
    4.4694    0.6017   -1.3270 H   0  0  0  0  0  0  0  0  0  0  0  0
    6.4156    0.3718   -0.4319 C   0  0  0  0  0  0  0  0  0  0  0  0
    6.6886    1.8885   -0.5056 C   0  0  0  0  0  0  0  0  0  0  0  0
    7.7723    2.0760   -0.6555 H   0  0  0  0  0  0  0  0  0  0  0  0
    6.3878    2.4224    0.4146 H   0  0  0  0  0  0  0  0  0  0  0  0
    6.1477    2.3501   -1.3573 H   0  0  0  0  0  0  0  0  0  0  0  0
    7.1507   -0.2203    0.7838 C   0  0  0  0  0  0  0  0  0  0  0  0
    8.2470   -0.0899    0.6684 H   0  0  0  0  0  0  0  0  0  0  0  0
    6.9517   -1.3059    0.8931 H   0  0  0  0  0  0  0  0  0  0  0  0
    6.8612    0.2776    1.7302 H   0  0  0  0  0  0  0  0  0  0  0  0
    7.0071   -0.2675   -1.7083 C   0  0  0  0  0  0  0  0  0  0  0  0
    8.0892   -0.0399   -1.8005 H   0  0  0  0  0  0  0  0  0  0  0  0
    6.5016    0.1145   -2.6193 H   0  0  0  0  0  0  0  0  0  0  0  0
    6.8912   -1.3711   -1.6965 H   0  0  0  0  0  0  0  0  0  0  0  0
    0.3462   -2.9326   -1.1710 C   0  0  0  0  0  0  0  0  0  0  0  0
    0.0681   -2.9916   -2.2430 H   0  0  0  0  0  0  0  0  0  0  0  0
    1.1210   -3.7177   -0.9770 H   0  0  0  0  0  0  0  0  0  0  0  0
   -1.6971   -4.2455   -0.9737 C   0  0  0  0  0  0  0  0  0  0  0  0
   -1.1742   -5.2385   -0.9739 H   0  0  0  0  0  0  0  0  0  0  0  0
   -1.9726   -3.9940   -2.0173 H   0  0  0  0  0  0  0  0  0  0  0  0
   -2.6404   -4.3617   -0.4047 H   0  0  0  0  0  0  0  0  0  0  0  0
   -0.6989   -3.2939    1.0274 C   0  0  0  0  0  0  0  0  0  0  0  0
    0.2410   -2.7733    1.2995 H   0  0  0  0  0  0  0  0  0  0  0  0
   -0.5656   -4.3576    1.3559 H   0  0  0  0  0  0  0  0  0  0  0  0
   -1.8605   -2.6986    1.8255 C   0  0  0  0  0  0  0  0  0  0  0  0
   -2.8110   -3.1788    1.5137 H   0  0  0  0  0  0  0  0  0  0  0  0
   -1.7186   -2.9372    2.9093 H   0  0  0  0  0  0  0  0  0  0  0  0
   -3.2528   -0.8065    2.3660 C   0  0  0  0  0  0  0  0  0  0  0  0
   -3.1707   -0.9873    3.4644 H   0  0  0  0  0  0  0  0  0  0  0  0
   -4.1302   -1.3548    1.9756 H   0  0  0  0  0  0  0  0  0  0  0  0
   -3.4153    0.2763    2.1991 H   0  0  0  0  0  0  0  0  0  0  0  0
   -0.8818   -0.4961    2.1945 C   0  0  0  0  0  0  0  0  0  0  0  0
   -0.7329   -0.7191    3.2787 H   0  0  0  0  0  0  0  0  0  0  0  0
   -1.0614    0.5883    2.0801 H   0  0  0  0  0  0  0  0  0  0  0  0
    0.0426   -0.7446    1.6443 H   0  0  0  0  0  0  0  0  0  0  0  0
  1  7  1  0  0  0  0
  2 15  1  0  0  0  0
  3  4  1  0  0  0  0
  3  2  1  0  0  0  0
  4 24  2  0  0  0  0
  5 57  1  0  0  0  0
  6 60  1  0  0  0  0
  6 67  1  0  0  0  0
  6 63  1  0  0  0  0
  7 14  2  0  0  0  0
  7  8  1  0  0  0  0
  8  3  1  0  0  0  0
  8  9  2  0  0  0  0
  9 11  1  0  0  0  0
  9 10  1  0  0  0  0
 11 25  1  0  0  0  0
 12 13  1  0  0  0  0
 12 11  2  0  0  0  0
 14 12  1  0  0  0  0
 15 16  2  0  0  0  0
 16 17  1  0  0  0  0
 16 18  1  0  0  0  0
 18 19  1  0  0  0  0
 20 21  1  0  0  0  0
 20 18  2  0  0  0  0
 22 20  1  0  0  0  0
 23 22  1  0  0  0  0
 24 22  1  0  0  0  0
 24 15  1  0  0  0  0
 25 30  1  0  0  0  0
 25 26  1  0  0  0  0
 26 28  1  0  0  0  0
 26 27  1  0  0  0  0
 29 26  1  0  0  0  0
 30 33  1  0  0  0  0
 30 31  1  0  0  0  0
 32 30  1  0  0  0  0
 34 37  1  0  0  0  0
 34 25  1  0  0  0  0
 35 34  1  0  0  0  0
 36 34  1  0  0  0  0
 37 42  1  0  0  0  0
 38 37  1  0  0  0  0
 38 40  1  0  0  0  0
 39 38  1  0  0  0  0
 41 38  1  0  0  0  0
 42 44  1  0  0  0  0
 42 45  1  0  0  0  0
 43 42  1  0  0  0  0
 46 49  1  0  0  0  0
 46 37  1  0  0  0  0
 47 46  1  0  0  0  0
 48 46  1  0  0  0  0
 50 52  1  0  0  0  0
 50 14  1  0  0  0  0
 50  5  1  0  0  0  0
 51 50  1  0  0  0  0
 53  5  1  0  0  0  0
 53 56  1  0  0  0  0
 54 53  1  0  0  0  0
 55 53  1  0  0  0  0
 57 58  1  0  0  0  0
 57 59  1  0  0  0  0
 57 60  1  0  0  0  0
 60 62  1  0  0  0  0
 61 60  1  0  0  0  0
 63 64  1  0  0  0  0
 65 63  1  0  0  0  0
 66 63  1  0  0  0  0
 67 68  1  0  0  0  0
 69 67  1  0  0  0  0
 70 67  1  0  0  0  0
M  CHG  1   1  -1
M  END
