2,3,4
 OpenBabel05122313063D

 21 22  0  0  1  0  0  0  0  0999 V2000
   -1.2839    0.0030   -2.9203 O   0  0  0  0  0  0  0  0  0  0  0  0
    0.1279    0.0006   -2.3421 O   0  0  0  0  0  1  0  0  0  0  0  0
   -1.9095   -0.0001   -0.7125 N   0  0  0  0  0  2  0  0  0  0  0  0
   -0.7667   -0.0016    1.5692 N   0  0  0  0  0  2  0  0  0  0  0  0
   -2.2546    0.0013   -2.0246 C   0  0  1  0  0  3  0  0  0  0  0  0
   -3.6230    0.0011   -2.3800 C   0  0  0  0  0  0  0  0  0  0  0  0
   -4.5711   -0.0002   -1.3482 C   0  0  0  0  0  0  0  0  0  0  0  0
   -4.1867   -0.0015    0.0086 C   0  0  0  0  0  0  0  0  0  0  0  0
   -2.8168   -0.0014    0.3055 C   0  0  0  0  0  0  0  0  0  0  0  0
   -2.1531   -0.0024    1.6186 C   0  0  2  0  0  3  0  0  0  0  0  0
   -2.8288   -0.0039    2.8501 C   0  0  0  0  0  0  0  0  0  0  0  0
   -2.1040   -0.0047    4.0460 C   0  0  0  0  0  0  0  0  0  0  0  0
   -0.6995   -0.0040    3.9834 C   0  0  0  0  0  0  0  0  0  0  0  0
   -0.0749   -0.0024    2.7354 C   0  0  0  0  0  0  0  0  0  0  0  0
   -3.9104    0.0021   -3.4395 H   0  0  0  0  0  0  0  0  0  0  0  0
   -5.6398   -0.0003   -1.6075 H   0  0  0  0  0  0  0  0  0  0  0  0
   -4.9412   -0.0024    0.8057 H   0  0  0  0  0  0  0  0  0  0  0  0
   -3.9275   -0.0045    2.8613 H   0  0  0  0  0  0  0  0  0  0  0  0
   -2.6250   -0.0059    5.0140 H   0  0  0  0  0  0  0  0  0  0  0  0
   -0.0860   -0.0046    4.8953 H   0  0  0  0  0  0  0  0  0  0  0  0
    1.0213   -0.0018    2.6416 H   0  0  0  0  0  0  0  0  0  0  0  0
  1  2  1  0  0  0  0
  3  9  1  0  0  0  0
  4 10  1  0  0  0  0
  4 14  1  0  0  0  0
  5  1  1  1  0  0  0
  5  3  1  0  0  0  0
  6  5  1  0  0  0  0
  6  7  2  0  0  0  0
  7  8  1  0  0  0  0
  8  9  2  0  0  0  0
  8 17  1  0  0  0  0
 10  9  1  1  0  0  0
 10 11  1  0  0  0  0
 11 18  1  0  0  0  0
 11 12  2  0  0  0  0
 12 19  1  0  0  0  0
 13 12  1  0  0  0  0
 13 20  1  0  0  0  0
 14 13  2  0  0  0  0
 15  6  1  0  0  0  0
 16  7  1  0  0  0  0
 21 14  1  0  0  0  0
M  END
