2,3,4
 OpenBabel05122313063D

 29 29  0  0  0  0  0  0  0  0999 V2000
   -3.2462    1.1114   -0.0242 Br  0  0  0  0  0  0  0  0  0  0  0  0
   -0.4630    0.0245    0.0773 O   0  5  0  0  0  0  0  0  0  0  0  0
    1.4856   -1.8623    0.0903 N   0  0  0  0  0  2  0  0  0  0  0  0
    3.3590   -0.0022   -0.1297 N   0  0  0  0  0  0  0  0  0  0  0  0
   -0.8980   -2.3643    0.0199 C   0  0  0  0  0  0  0  0  0  0  0  0
   -1.2876   -0.9725    0.0231 C   0  0  0  0  0  0  0  0  0  0  0  0
   -2.7014   -0.7022   -0.0273 C   0  0  0  0  0  0  0  0  0  0  0  0
   -3.6400   -1.7269   -0.0771 C   0  0  0  0  0  0  0  0  0  0  0  0
   -4.7077   -1.4661   -0.1151 H   0  0  0  0  0  0  0  0  0  0  0  0
   -3.2341   -3.0850   -0.0783 C   0  0  0  0  0  0  0  0  0  0  0  0
   -3.9922   -3.8801   -0.1169 H   0  0  0  0  0  0  0  0  0  0  0  0
   -1.8832   -3.3930   -0.0293 C   0  0  0  0  0  3  0  0  0  0  0  0
   -1.5483   -4.4424   -0.0274 H   0  0  0  0  0  0  0  0  0  0  0  0
    0.4829   -2.7152    0.0840 C   0  0  0  0  0  0  0  0  0  0  0  0
    0.7265   -3.7954    0.1377 H   0  0  0  0  0  0  0  0  0  0  0  0
    2.8502   -2.3590    0.2579 C   0  0  0  0  0  0  0  0  0  0  0  0
    2.9673   -3.3925   -0.1343 H   0  0  0  0  0  0  0  0  0  0  0  0
    3.1075   -2.3931    1.3406 H   0  0  0  0  0  0  0  0  0  0  0  0
    3.7547   -1.3918   -0.4828 C   0  0  0  0  0  0  0  0  0  0  0  0
    4.8330   -1.5629   -0.2659 H   0  0  0  0  0  0  0  0  0  0  0  0
    3.5995   -1.5084   -1.5734 H   0  0  0  0  0  0  0  0  0  0  0  0
    3.8641    0.4040    1.2003 C   0  0  0  0  0  0  0  0  0  0  0  0
    3.5283   -0.3112    1.9737 H   0  0  0  0  0  0  0  0  0  0  0  0
    3.4452    1.3994    1.4357 H   0  0  0  0  0  0  0  0  0  0  0  0
    4.9770    0.4463    1.2004 H   0  0  0  0  0  0  0  0  0  0  0  0
    3.8338    0.9471   -1.1592 C   0  0  0  0  0  0  0  0  0  0  0  0
    3.4717    1.9568   -0.8978 H   0  0  0  0  0  0  0  0  0  0  0  0
    3.4112    0.6667   -2.1419 H   0  0  0  0  0  0  0  0  0  0  0  0
    4.9454    0.9298   -1.2142 H   0  0  0  0  0  0  0  0  0  0  0  0
  3 16  1  0  0  0  0
  4 22  1  0  0  0  0
  5  6  1  0  0  0  0
  5 14  2  0  0  0  0
  6  2  1  0  0  0  0
  7  1  1  0  0  0  0
  7  6  2  0  0  0  0
  8  7  1  0  0  0  0
  9  8  1  0  0  0  0
 10  8  2  0  0  0  0
 10 12  1  0  0  0  0
 11 10  1  0  0  0  0
 12 13  1  0  0  0  0
 12  5  1  0  0  0  0
 14  3  1  0  0  0  0
 14 15  1  0  0  0  0
 16 18  1  0  0  0  0
 17 16  1  0  0  0  0
 19 20  1  0  0  0  0
 19  4  1  0  0  0  0
 19 16  1  0  0  0  0
 21 19  1  0  0  0  0
 22 25  1  0  0  0  0
 22 24  1  0  0  0  0
 22 23  1  0  0  0  0
 26 27  1  0  0  0  0
 26  4  1  0  0  0  0
 28 26  1  0  0  0  0
 29 26  1  0  0  0  0
M  CHG  1   2  -1
M  END
