1,2,3
 OpenBabel05122313063D

 27 28  0  0  1  0  0  0  0  0999 V2000
    1.3629    1.2618    0.0508 O   0  5  0  0  0  0  0  0  0  0  0  0
    0.0001   -1.0935    0.1020 N   0  0  0  0  0  2  0  0  0  0  0  0
   -2.1738    0.2004   -0.0054 N   0  0  0  0  0  2  0  0  0  0  0  0
   -2.4099   -1.1404    0.0640 C   0  0  1  0  0  3  0  0  0  0  0  0
   -3.7090   -1.6551   -0.0130 C   0  0  0  0  0  0  0  0  0  0  0  0
   -3.8690   -2.7414    0.0461 H   0  0  0  0  0  0  0  0  0  0  0  0
   -4.7851   -0.7722   -0.1718 C   0  0  0  0  0  0  0  0  0  0  0  0
   -5.8138   -1.1557   -0.2360 H   0  0  0  0  0  0  0  0  0  0  0  0
   -4.5290    0.6057   -0.2597 C   0  0  0  0  0  0  0  0  0  0  0  0
   -5.3419    1.3320   -0.3989 H   0  0  0  0  0  0  0  0  0  0  0  0
   -3.2120    1.0581   -0.1766 C   0  0  0  0  0  0  0  0  0  0  0  0
   -2.9540    2.1230   -0.2624 H   0  0  0  0  0  0  0  0  0  0  0  0
   -1.1716   -1.9701    0.2249 C   0  0  0  0  0  0  0  0  0  0  0  0
   -1.1759   -2.4649    1.2226 H   0  0  0  0  0  0  0  0  0  0  0  0
   -1.1438   -2.7788   -0.5379 H   0  0  0  0  0  0  0  0  0  0  0  0
    2.4361   -0.9076   -0.0140 C   0  0  0  0  0  0  0  0  0  0  0  0
    2.4592    0.5330   -0.0130 C   0  0  0  0  0  0  0  0  0  0  0  0
    3.7168    1.1889   -0.0791 C   0  0  0  0  0  0  0  0  0  0  0  0
    3.7289    2.2878   -0.0786 H   0  0  0  0  0  0  0  0  0  0  0  0
    4.8955    0.4513   -0.1445 C   0  0  0  0  0  0  0  0  0  0  0  0
    5.8572    0.9841   -0.1964 H   0  0  0  0  0  0  0  0  0  0  0  0
    4.8801   -0.9659   -0.1446 C   0  0  0  0  0  0  0  0  0  0  0  0
    5.8221   -1.5293   -0.1954 H   0  0  0  0  0  0  0  0  0  0  0  0
    3.6657   -1.6303   -0.0795 C   0  0  0  0  0  3  0  0  0  0  0  0
    3.6319   -2.7307   -0.0780 H   0  0  0  0  0  0  0  0  0  0  0  0
    1.2067   -1.6213    0.0562 C   0  0  0  0  0  0  0  0  0  0  0  0
    1.2691   -2.7268    0.0771 H   0  0  0  0  0  0  0  0  0  0  0  0
  2 13  1  0  0  0  0
  3  4  1  0  0  0  0
  4 13  1  6  0  0  0
  5  6  1  0  0  0  0
  5  4  1  0  0  0  0
  7  5  2  0  0  0  0
  8  7  1  0  0  0  0
  9 11  2  0  0  0  0
  9  7  1  0  0  0  0
 10  9  1  0  0  0  0
 11  3  1  0  0  0  0
 12 11  1  0  0  0  0
 13 14  1  0  0  0  0
 15 13  1  0  0  0  0
 16 17  1  0  0  0  0
 16 26  2  0  0  0  0
 17  1  1  0  0  0  0
 18 19  1  0  0  0  0
 18 17  2  0  0  0  0
 20 18  1  0  0  0  0
 21 20  1  0  0  0  0
 22 20  2  0  0  0  0
 22 24  1  0  0  0  0
 23 22  1  0  0  0  0
 24 25  1  0  0  0  0
 24 16  1  0  0  0  0
 26 27  1  0  0  0  0
 26  2  1  0  0  0  0
M  CHG  1   1  -1
M  END
