6,9,10
 OpenBabel05122313063D

 44 46  0  0  1  0  0  0  0  0999 V2000
    0.4368    1.5676   -1.3288 S   0  0  0  0  0  0  0  0  0  0  0  0
    3.2542    0.4827    2.9659 F   0  0  0  0  0  0  0  0  0  0  0  0
    5.0068    2.4870    2.3927 F   0  0  0  0  0  0  0  0  0  0  0  0
    4.6868    4.0150    0.1395 F   0  0  0  0  0  0  0  0  0  0  0  0
    2.5997    3.5247   -1.5330 F   0  0  0  0  0  0  0  0  0  0  0  0
    1.1129   -0.0005    1.4139 O   0  5  0  0  0  0  0  0  0  0  0  0
    1.0928    1.1172   -2.5849 O   0  0  0  0  0  0  0  0  0  0  0  0
   -0.3187    2.8409   -1.3291 O   0  0  0  0  0  0  0  0  0  0  0  0
   -1.2252   -1.1168    1.3385 N   0  0  0  0  0  0  0  0  0  0  0  0
   -0.5514    0.3519   -0.7713 N   0  0  0  0  0  2  0  0  0  0  0  0
   -2.3444   -0.3886    0.6869 C   0  0  2  0  0  0  0  0  0  0  0  0
   -1.7381    0.8327   -0.0467 C   0  0  2  0  0  0  0  0  0  0  0  0
    1.9265    0.9762    1.0449 C   0  0  0  0  0  0  0  0  0  0  0  0
    3.0480    1.2495    1.8777 C   0  0  0  0  0  0  0  0  0  0  0  0
    3.9644    2.2651    1.5834 C   0  0  0  0  0  0  0  0  0  0  0  0
    3.8089    3.0414    0.4206 C   0  0  0  0  0  0  0  0  0  0  0  0
    2.7242    2.7807   -0.4281 C   0  0  0  0  0  0  0  0  0  0  0  0
    1.7915    1.7700   -0.1316 C   0  0  0  0  0  0  0  0  0  0  0  0
   -3.4503   -0.0139    1.6504 C   0  0  0  0  0  0  0  0  0  0  0  0
   -4.7901   -0.3105    1.3395 C   0  0  0  0  0  0  0  0  0  0  0  0
   -5.8264    0.0758    2.2023 C   0  0  0  0  0  0  0  0  0  0  0  0
   -5.5328    0.7619    3.3907 C   0  0  0  0  0  0  0  0  0  0  0  0
   -4.1988    1.0643    3.7097 C   0  0  0  0  0  0  0  0  0  0  0  0
   -3.1653    0.6826    2.8427 C   0  0  0  0  0  0  0  0  0  0  0  0
   -2.8038    1.4191   -0.9639 C   0  0  0  0  0  0  0  0  0  0  0  0
   -3.0076    0.8788   -2.2464 C   0  0  0  0  0  0  0  0  0  0  0  0
   -4.0484    1.3519   -3.0583 C   0  0  0  0  0  0  0  0  0  0  0  0
   -4.8977    2.3702   -2.5953 C   0  0  0  0  0  0  0  0  0  0  0  0
   -4.6945    2.9160   -1.3179 C   0  0  0  0  0  0  0  0  0  0  0  0
   -3.6529    2.4417   -0.5075 C   0  0  0  0  0  0  0  0  0  0  0  0
   -1.5661   -1.9736    1.7943 H   0  0  0  0  0  0  0  0  0  0  0  0
   -0.7732   -0.5272    2.0628 H   0  0  0  0  0  0  0  0  0  0  0  0
   -2.7481   -1.0714   -0.0883 H   0  0  0  0  0  0  0  0  0  0  0  0
   -1.4788    1.5962    0.7249 H   0  0  0  0  0  0  0  0  0  0  0  0
   -5.0208   -0.8316    0.3974 H   0  0  0  0  0  0  0  0  0  0  0  0
   -6.8700   -0.1562    1.9416 H   0  0  0  0  0  0  0  0  0  0  0  0
   -6.3445    1.0663    4.0685 H   0  0  0  0  0  0  0  0  0  0  0  0
   -3.9621    1.6089    4.6362 H   0  0  0  0  0  0  0  0  0  0  0  0
   -2.1256    0.9478    3.0959 H   0  0  0  0  0  0  0  0  0  0  0  0
   -2.3129    0.1052   -2.6081 H   0  0  0  0  0  0  0  0  0  0  0  0
   -4.1915    0.9308   -4.0655 H   0  0  0  0  0  0  0  0  0  0  0  0
   -5.7102    2.7471   -3.2351 H   0  0  0  0  0  0  0  0  0  0  0  0
   -5.3475    3.7231   -0.9520 H   0  0  0  0  0  0  0  0  0  0  0  0
   -3.4901    2.8741    0.4918 H   0  0  0  0  0  0  0  0  0  0  0  0
  1 10  1  0  0  0  0
  1 18  1  0  0  0  0
  4 16  1  0  0  0  0
  5 17  1  0  0  0  0
  7  1  2  0  0  0  0
  8  1  2  0  0  0  0
  9 31  1  0  0  0  0
  9 32  1  0  0  0  0
 10 12  1  0  0  0  0
 11 33  1  6  0  0  0
 11  9  1  0  0  0  0
 11 19  1  0  0  0  0
 12 11  1  0  0  0  0
 12 34  1  1  0  0  0
 13  6  1  0  0  0  0
 13 14  1  0  0  0  0
 14  2  1  0  0  0  0
 15 14  2  0  0  0  0
 15  3  1  0  0  0  0
 16 15  1  0  0  0  0
 17 18  1  0  0  0  0
 17 16  2  0  0  0  0
 18 13  2  0  0  0  0
 19 24  1  0  0  0  0
 20 19  2  0  0  0  0
 20 21  1  0  0  0  0
 21 22  2  0  0  0  0
 22 23  1  0  0  0  0
 22 37  1  0  0  0  0
 23 38  1  0  0  0  0
 24 39  1  0  0  0  0
 24 23  2  0  0  0  0
 25 30  1  0  0  0  0
 25 12  1  0  0  0  0
 26 25  2  0  0  0  0
 27 28  2  0  0  0  0
 27 26  1  0  0  0  0
 28 29  1  0  0  0  0
 29 43  1  0  0  0  0
 29 30  2  0  0  0  0
 30 44  1  0  0  0  0
 35 20  1  0  0  0  0
 36 21  1  0  0  0  0
 40 26  1  0  0  0  0
 41 27  1  0  0  0  0
 42 28  1  0  0  0  0
M  CHG  1   6  -1
M  END
