2,4,5
 OpenBabel05122313063D

 34 35  0  0  0  0  0  0  0  0999 V2000
    6.3305   -2.0078    0.2031 Cl  0  0  0  0  0  0  0  0  0  0  0  0
    0.7462   -0.1538    0.6235 O   0  5  0  0  0  0  0  0  0  0  0  0
   -4.7802   -1.2413    1.3099 O   0  0  0  0  0  0  0  0  0  0  0  0
   -0.0116   -2.3749   -0.7563 N   0  0  0  0  0  2  0  0  0  0  0  0
   -2.5671   -1.7327   -0.5101 N   0  0  0  0  0  0  0  0  0  0  0  0
    1.9624   -0.6089    0.4998 C   0  0  0  0  0  0  0  0  0  0  0  0
    3.0336    0.1512    1.0615 C   0  0  0  0  0  0  0  0  0  0  0  0
    2.7739    1.0938    1.5645 H   0  0  0  0  0  0  0  0  0  0  0  0
    4.3511   -0.2774    0.9719 C   0  0  0  0  0  0  0  0  0  0  0  0
    5.1637    0.3204    1.4095 H   0  0  0  0  0  0  0  0  0  0  0  0
    4.6643   -1.4903    0.3072 C   0  0  0  0  0  0  0  0  0  0  0  0
    3.6548   -2.2561   -0.2595 C   0  0  0  0  0  3  0  0  0  0  0  0
    3.9033   -3.1940   -0.7778 H   0  0  0  0  0  0  0  0  0  0  0  0
    2.2965   -1.8386   -0.1735 C   0  0  0  0  0  0  0  0  0  0  0  0
    1.2768   -2.6366   -0.7781 C   0  0  0  0  0  0  0  0  0  0  0  0
    1.6057   -3.5446   -1.3215 H   0  0  0  0  0  0  0  0  0  0  0  0
   -0.9302   -3.2868   -1.4447 C   0  0  0  0  0  0  0  0  0  0  0  0
   -1.1400   -4.1709   -0.8030 H   0  0  0  0  0  0  0  0  0  0  0  0
   -0.4876   -3.6671   -2.3892 H   0  0  0  0  0  0  0  0  0  0  0  0
   -2.1949   -2.4979   -1.7310 C   0  0  0  0  0  0  0  0  0  0  0  0
   -2.0072   -1.7553   -2.5291 H   0  0  0  0  0  0  0  0  0  0  0  0
   -3.0332   -3.1640   -2.0385 H   0  0  0  0  0  0  0  0  0  0  0  0
   -2.9624   -2.6661    0.5919 C   0  0  0  0  0  0  0  0  0  0  0  0
   -3.6785   -3.4095    0.1680 H   0  0  0  0  0  0  0  0  0  0  0  0
   -2.0639   -3.2045    0.9493 H   0  0  0  0  0  0  0  0  0  0  0  0
   -3.6324   -1.9438    1.7548 C   0  0  0  0  0  0  0  0  0  0  0  0
   -2.9021   -1.2733    2.2682 H   0  0  0  0  0  0  0  0  0  0  0  0
   -3.9727   -2.7000    2.4904 H   0  0  0  0  0  0  0  0  0  0  0  0
   -4.3859   -0.2338    0.3915 C   0  0  0  0  0  0  0  0  0  0  0  0
   -3.7071    0.4991    0.8751 H   0  0  0  0  0  0  0  0  0  0  0  0
   -5.3050    0.2938    0.0669 H   0  0  0  0  0  0  0  0  0  0  0  0
   -3.7078   -0.8264   -0.8426 C   0  0  0  0  0  0  0  0  0  0  0  0
   -4.4537   -1.4290   -1.4107 H   0  0  0  0  0  0  0  0  0  0  0  0
   -3.3092   -0.0295   -1.4983 H   0  0  0  0  0  0  0  0  0  0  0  0
  1 11  1  0  0  0  0
  3 26  1  0  0  0  0
  5 23  1  0  0  0  0
  6  2  1  0  0  0  0
  6  7  2  0  0  0  0
  7  8  1  0  0  0  0
  9  7  1  0  0  0  0
  9 10  1  0  0  0  0
 11  9  2  0  0  0  0
 12 14  1  0  0  0  0
 12 11  1  0  0  0  0
 13 12  1  0  0  0  0
 14  6  1  0  0  0  0
 15  4  1  0  0  0  0
 15 14  2  0  0  0  0
 16 15  1  0  0  0  0
 17 18  1  0  0  0  0
 17  4  1  0  0  0  0
 19 17  1  0  0  0  0
 20 17  1  0  0  0  0
 20  5  1  0  0  0  0
 21 20  1  0  0  0  0
 22 20  1  0  0  0  0
 23 25  1  0  0  0  0
 23 26  1  0  0  0  0
 24 23  1  0  0  0  0
 26 27  1  0  0  0  0
 26 28  1  0  0  0  0
 29 30  1  0  0  0  0
 29  3  1  0  0  0  0
 31 29  1  0  0  0  0
 32  5  1  0  0  0  0
 32 29  1  0  0  0  0
 33 32  1  0  0  0  0
 34 32  1  0  0  0  0
M  CHG  1   2  -1
M  END
