1,2,3
 OpenBabel05122313063D

 29 29  0  0  0  0  0  0  0  0999 V2000
    0.5614   -0.9695    0.9252 O   0  5  0  0  0  0  0  0  0  0  0  0
   -0.7714   -1.1750   -1.5024 N   0  0  0  0  0  2  0  0  0  0  0  0
   -2.1656    1.0735   -1.0360 N   0  0  0  0  0  0  0  0  0  0  0  0
    1.4809   -1.6962    0.3323 C   0  0  0  0  0  0  0  0  0  0  0  0
    2.6551   -2.0160    1.0722 C   0  0  0  0  0  0  0  0  0  0  0  0
    2.7466   -1.5975    2.0845 H   0  0  0  0  0  0  0  0  0  0  0  0
    3.6473   -2.8268    0.5291 C   0  0  0  0  0  0  0  0  0  0  0  0
    4.5437   -3.0502    1.1280 H   0  0  0  0  0  0  0  0  0  0  0  0
    3.5293   -3.3580   -0.7783 C   0  0  0  0  0  0  0  0  0  0  0  0
    4.3240   -3.9920   -1.1953 H   0  0  0  0  0  0  0  0  0  0  0  0
    2.3979   -3.0600   -1.5242 C   0  0  0  0  0  0  0  0  0  0  0  0
    2.2854   -3.4585   -2.5450 H   0  0  0  0  0  0  0  0  0  0  0  0
    1.3619   -2.2325   -1.0014 C   0  0  0  0  0  0  0  0  0  0  0  0
    0.2206   -1.9643   -1.8194 C   0  0  0  0  0  3  0  0  0  0  0  0
    0.1792   -2.4731   -2.8042 H   0  0  0  0  0  0  0  0  0  0  0  0
   -1.8601   -0.8991   -2.4235 C   0  0  0  0  0  0  0  0  0  0  0  0
   -2.7983   -1.3888   -2.0666 H   0  0  0  0  0  0  0  0  0  0  0  0
   -1.6578   -1.2950   -3.4414 H   0  0  0  0  0  0  0  0  0  0  0  0
   -2.0374    0.6119   -2.4443 C   0  0  0  0  0  0  0  0  0  0  0  0
   -2.9099    0.9153   -3.0585 H   0  0  0  0  0  0  0  0  0  0  0  0
   -1.1242    1.0873   -2.8529 H   0  0  0  0  0  0  0  0  0  0  0  0
   -2.0617    2.5534   -0.8916 C   0  0  0  0  0  0  0  0  0  0  0  0
   -1.0352    2.8250   -1.2049 H   0  0  0  0  0  0  0  0  0  0  0  0
   -2.1311    2.7746    0.1905 H   0  0  0  0  0  0  0  0  0  0  0  0
   -3.1159    3.3387   -1.6637 C   0  0  0  0  0  0  0  0  0  0  0  0
   -3.0092    3.2346   -2.7612 H   0  0  0  0  0  0  0  0  0  0  0  0
   -3.0167    4.4164   -1.4283 H   0  0  0  0  0  0  0  0  0  0  0  0
   -4.1469    3.0353   -1.3834 H   0  0  0  0  0  0  0  0  0  0  0  0
   -3.1083    0.8026   -0.7084 H   0  0  0  0  0  0  0  0  0  0  0  0
  3 22  1  0  0  0  0
  3 29  1  0  0  0  0
  4  1  1  0  0  0  0
  4  5  1  0  0  0  0
  5  6  1  0  0  0  0
  7  5  2  0  0  0  0
  7  8  1  0  0  0  0
  9  7  1  0  0  0  0
 10  9  1  0  0  0  0
 11 13  1  0  0  0  0
 11  9  2  0  0  0  0
 12 11  1  0  0  0  0
 13  4  2  0  0  0  0
 14  2  1  0  0  0  0
 14 13  1  0  0  0  0
 15 14  1  0  0  0  0
 16 17  1  0  0  0  0
 16  2  1  0  0  0  0
 18 16  1  0  0  0  0
 19 16  1  0  0  0  0
 19  3  1  0  0  0  0
 20 19  1  0  0  0  0
 21 19  1  0  0  0  0
 22 24  1  0  0  0  0
 23 22  1  0  0  0  0
 25 27  1  0  0  0  0
 25 28  1  0  0  0  0
 25 22  1  0  0  0  0
 26 25  1  0  0  0  0
M  CHG  1   1  -1
M  END
