1,2,3
 OpenBabel05122313063D

 48 50  0  0  1  0  0  0  0  0999 V2000
   -0.8703    2.2238    0.0001 O   0  5  0  0  0  0  0  0  0  0  0  0
   -0.7106   -0.3234   -0.0000 N   0  0  0  0  0  2  0  0  0  0  0  0
    1.8271   -0.9373   -0.0000 N   0  0  0  0  0  2  0  0  0  0  0  0
   -2.0142    1.5855    0.0001 C   0  0  0  0  0  0  0  0  0  0  0  0
   -3.2902    2.1636    0.0001 C   0  0  0  0  0  0  0  0  0  0  0  0
   -3.3945    3.2577    0.0002 H   0  0  0  0  0  0  0  0  0  0  0  0
   -4.4294    1.3297    0.0001 C   0  0  0  0  0  0  0  0  0  0  0  0
   -5.4017    1.8389    0.0001 H   0  0  0  0  0  0  0  0  0  0  0  0
   -4.4169   -0.0801    0.0000 C   0  0  0  0  0  0  0  0  0  0  0  0
   -3.1262   -0.7102   -0.0000 C   0  0  0  0  0  0  0  0  0  0  0  0
   -1.9672    0.1450    0.0000 C   0  0  2  0  0  3  0  0  0  0  0  0
   -2.8198   -2.1129   -0.0001 C   0  0  0  0  0  0  0  0  0  0  0  0
   -3.6277   -2.8532   -0.0002 H   0  0  0  0  0  0  0  0  0  0  0  0
   -1.5091   -2.5708   -0.0001 C   0  0  0  0  0  0  0  0  0  0  0  0
   -1.2912   -3.6485   -0.0002 H   0  0  0  0  0  0  0  0  0  0  0  0
   -0.4408   -1.6341   -0.0001 C   0  0  0  0  0  0  0  0  0  0  0  0
   -5.7384   -0.8784   -0.0000 C   0  0  0  0  0  0  0  0  0  0  0  0
   -5.8406   -1.7491    1.2767 C   0  0  0  0  0  0  0  0  0  0  0  0
   -5.0205   -2.4842    1.3738 H   0  0  0  0  0  0  0  0  0  0  0  0
   -6.7968   -2.3120    1.2797 H   0  0  0  0  0  0  0  0  0  0  0  0
   -5.8171   -1.1103    2.1823 H   0  0  0  0  0  0  0  0  0  0  0  0
   -5.8407   -1.7489   -1.2768 C   0  0  0  0  0  0  0  0  0  0  0  0
   -5.8171   -1.1100   -2.1824 H   0  0  0  0  0  0  0  0  0  0  0  0
   -6.7968   -2.3118   -1.2798 H   0  0  0  0  0  0  0  0  0  0  0  0
   -5.0205   -2.4840   -1.3740 H   0  0  0  0  0  0  0  0  0  0  0  0
   -6.9706    0.0491    0.0001 C   0  0  0  0  0  0  0  0  0  0  0  0
   -7.0053    0.6965    0.8991 H   0  0  0  0  0  0  0  0  0  0  0  0
   -7.8916   -0.5673    0.0001 H   0  0  0  0  0  0  0  0  0  0  0  0
   -7.0053    0.6966   -0.8989 H   0  0  0  0  0  0  0  0  0  0  0  0
    0.9777   -1.9253   -0.0001 C   0  0  0  0  0  3  0  0  0  0  0  0
    1.3256   -2.9769   -0.0001 H   0  0  0  0  0  0  0  0  0  0  0  0
    3.2257   -1.2707    0.0000 C   0  0  0  0  0  0  0  0  0  0  0  0
    3.8987   -1.4341    1.2390 C   0  0  0  0  0  0  0  0  0  0  0  0
    5.2857   -1.6787    1.2098 C   0  0  0  0  0  0  0  0  0  0  0  0
    5.8190   -1.7914    2.1666 H   0  0  0  0  0  0  0  0  0  0  0  0
    5.9818   -1.7841    0.0001 C   0  0  0  0  0  0  0  0  0  0  0  0
    7.0673   -1.9641    0.0001 H   0  0  0  0  0  0  0  0  0  0  0  0
    5.2858   -1.6787   -1.2097 C   0  0  0  0  0  0  0  0  0  0  0  0
    5.8191   -1.7913   -2.1664 H   0  0  0  0  0  0  0  0  0  0  0  0
    3.8988   -1.4341   -1.2389 C   0  0  0  0  0  0  0  0  0  0  0  0
    3.1576   -1.3910   -2.5482 C   0  0  0  0  0  0  0  0  0  0  0  0
    2.4912   -2.2738   -2.6579 H   0  0  0  0  0  0  0  0  0  0  0  0
    3.8629   -1.4002   -3.4006 H   0  0  0  0  0  0  0  0  0  0  0  0
    2.4897   -0.5093   -2.6317 H   0  0  0  0  0  0  0  0  0  0  0  0
    3.1575   -1.3911    2.5482 C   0  0  0  0  0  0  0  0  0  0  0  0
    2.4899   -0.5091    2.6319 H   0  0  0  0  0  0  0  0  0  0  0  0
    3.8627   -1.4008    3.4007 H   0  0  0  0  0  0  0  0  0  0  0  0
    2.4906   -2.2736    2.6576 H   0  0  0  0  0  0  0  0  0  0  0  0
  2 11  1  0  0  0  0
  3 32  1  0  0  0  0
  4  1  1  0  0  0  0
  4  5  2  0  0  0  0
  5  6  1  0  0  0  0
  7  5  1  0  0  0  0
  7  8  1  0  0  0  0
  9  7  2  0  0  0  0
 10  9  1  0  0  0  0
 11 10  1  1  0  0  0
 11  4  1  0  0  0  0
 12 10  2  0  0  0  0
 13 12  1  0  0  0  0
 14 12  1  0  0  0  0
 14 16  2  0  0  0  0
 15 14  1  0  0  0  0
 16 30  1  0  0  0  0
 16  2  1  0  0  0  0
 17  9  1  0  0  0  0
 17 26  1  0  0  0  0
 17 18  1  0  0  0  0
 18 20  1  0  0  0  0
 18 19  1  0  0  0  0
 18 21  1  0  0  0  0
 22 17  1  0  0  0  0
 23 22  1  0  0  0  0
 24 22  1  0  0  0  0
 25 22  1  0  0  0  0
 26 28  1  0  0  0  0
 26 27  1  0  0  0  0
 29 26  1  0  0  0  0
 30  3  1  0  0  0  0
 31 30  1  0  0  0  0
 32 33  1  0  0  0  0
 33 45  1  0  0  0  0
 34 33  2  0  0  0  0
 34 35  1  0  0  0  0
 36 37  1  0  0  0  0
 36 34  1  0  0  0  0
 38 36  2  0  0  0  0
 39 38  1  0  0  0  0
 40 38  1  0  0  0  0
 40 32  2  0  0  0  0
 41 40  1  0  0  0  0
 42 41  1  0  0  0  0
 43 41  1  0  0  0  0
 44 41  1  0  0  0  0
 45 46  1  0  0  0  0
 45 48  1  0  0  0  0
 45 47  1  0  0  0  0
M  CHG  1   1  -1
M  END
