2,3,4
 OpenBabel05122313063D

 27 28  0  0  0  0  0  0  0  0999 V2000
    6.9549    0.2819   -0.0025 Cl  0  0  0  0  0  0  0  0  0  0  0  0
    0.3714   -1.1055   -0.0019 O   0  5  0  0  0  0  0  0  0  0  0  0
   -3.4381   -0.0574   -0.0037 N   0  0  0  0  0  2  0  0  0  0  0  0
   -1.0494    0.9074    0.0012 N   0  0  0  0  0  2  0  0  0  0  0  0
    0.2480    1.2085    0.0022 N   0  0  0  0  0  0  0  0  0  0  0  0
   -4.6399   -0.6533   -0.0090 C   0  0  0  0  0  3  0  0  0  0  0  0
   -4.6279   -1.7537   -0.0135 H   0  0  0  0  0  0  0  0  0  0  0  0
   -5.8328    0.0836   -0.0092 C   0  0  0  0  0  0  0  0  0  0  0  0
   -6.7984   -0.4403   -0.0135 H   0  0  0  0  0  0  0  0  0  0  0  0
   -5.7577    1.4860   -0.0040 C   0  0  0  0  0  0  0  0  0  0  0  0
   -6.6752    2.0934   -0.0039 H   0  0  0  0  0  0  0  0  0  0  0  0
   -4.5042    2.1072    0.0007 C   0  0  0  0  0  0  0  0  0  0  0  0
   -4.4067    3.2022    0.0043 H   0  0  0  0  0  0  0  0  0  0  0  0
   -3.3442    1.3054    0.0006 C   0  0  0  0  0  0  0  0  0  0  0  0
   -1.9888    1.8212    0.0036 C   0  0  0  0  0  3  0  0  0  0  0  0
   -1.7555    2.8997    0.0070 H   0  0  0  0  0  0  0  0  0  0  0  0
    0.9455    0.0472   -0.0001 C   0  0  0  0  0  0  0  0  0  0  0  0
    2.4176    0.1196   -0.0006 C   0  0  0  0  0  0  0  0  0  0  0  0
    3.0847    1.3652    0.0011 C   0  0  0  0  0  0  0  0  0  0  0  0
    2.4844    2.2856    0.0029 H   0  0  0  0  0  0  0  0  0  0  0  0
    4.4805    1.4194    0.0006 C   0  0  0  0  0  0  0  0  0  0  0  0
    5.0112    2.3816    0.0019 H   0  0  0  0  0  0  0  0  0  0  0  0
    5.2154    0.2191   -0.0017 C   0  0  0  0  0  0  0  0  0  0  0  0
    4.5682   -1.0302   -0.0034 C   0  0  0  0  0  0  0  0  0  0  0  0
    5.1652   -1.9526   -0.0052 H   0  0  0  0  0  0  0  0  0  0  0  0
    3.1717   -1.0742   -0.0028 C   0  0  0  0  0  0  0  0  0  0  0  0
    2.6370   -2.0348   -0.0041 H   0  0  0  0  0  0  0  0  0  0  0  0
  1 23  1  0  0  0  0
  2 17  1  0  0  0  0
  3 14  1  0  0  0  0
  4  5  1  0  0  0  0
  4 15  1  0  0  0  0
  6  3  1  0  0  0  0
  7  6  1  0  0  0  0
  8  6  1  0  0  0  0
  8 10  2  0  0  0  0
  9  8  1  0  0  0  0
 10 11  1  0  0  0  0
 10 12  1  0  0  0  0
 12 13  1  0  0  0  0
 14 12  2  0  0  0  0
 14 15  1  0  0  0  0
 15 16  1  0  0  0  0
 17  5  2  0  0  0  0
 18 17  1  0  0  0  0
 18 19  1  0  0  0  0
 19 20  1  0  0  0  0
 21 19  2  0  0  0  0
 21 22  1  0  0  0  0
 23 21  1  0  0  0  0
 24 26  1  0  0  0  0
 24 23  2  0  0  0  0
 25 24  1  0  0  0  0
 26 18  2  0  0  0  0
 27 26  1  0  0  0  0
M  CHG  1   2  -1
M  END
