1,4,5
 OpenBabel05122313063D

 38 40  0  0  0  0  0  0  0  0999 V2000
   -1.1428    1.1410    1.6371 O   0  5  0  0  0  0  0  0  0  0  0  0
   -5.3123    0.6012    1.2827 O   0  0  0  0  0  0  0  0  0  0  0  0
   -2.9239    0.0180    0.6241 N   0  0  0  0  0  0  0  0  0  0  0  0
   -1.9853   -0.6643   -0.0187 N   0  0  0  0  0  2  0  0  0  0  0  0
    0.1549   -1.6235   -1.2337 N   0  0  0  0  0  2  0  0  0  0  0  0
   -5.1922    3.2080    3.8264 C   0  0  0  0  0  0  0  0  0  0  0  0
   -3.8041    3.4228    3.9732 C   0  0  0  0  0  0  0  0  0  0  0  0
   -2.9177    2.6732    3.2028 C   0  0  0  0  0  0  0  0  0  0  0  0
   -3.3793    1.7042    2.2798 C   0  0  0  0  0  0  0  0  0  0  0  0
   -4.7924    1.4896    2.1327 C   0  0  0  0  0  0  0  0  0  0  0  0
   -5.6786    2.2623    2.9243 C   0  0  0  0  0  0  0  0  0  0  0  0
   -2.3850    0.9428    1.5044 C   0  0  0  0  0  0  0  0  0  0  0  0
   -2.2449   -1.5575   -0.9520 C   0  0  0  0  0  0  0  0  0  0  0  0
   -3.6173   -1.9171   -1.3849 C   0  0  0  0  0  0  0  0  0  0  0  0
   -4.6043   -2.2698   -0.4371 C   0  0  0  0  0  0  0  0  0  0  0  0
   -5.9088   -2.5708   -0.8487 C   0  0  0  0  0  0  0  0  0  0  0  0
   -6.2510   -2.5246   -2.2098 C   0  0  0  0  0  0  0  0  0  0  0  0
   -5.2797   -2.1732   -3.1605 C   0  0  0  0  0  0  0  0  0  0  0  0
   -3.9728   -1.8718   -2.7523 C   0  0  0  0  0  0  0  0  0  0  0  0
   -1.0456   -2.1730   -1.5595 C   0  0  0  0  0  0  0  0  0  0  0  0
   -1.1084   -3.3001   -2.4110 C   0  0  0  0  0  0  0  0  0  0  0  0
    0.0777   -3.8367   -2.9235 C   0  0  0  0  0  0  0  0  0  0  0  0
    1.3062   -3.2519   -2.5793 C   0  0  0  0  0  0  0  0  0  0  0  0
    1.2883   -2.1442   -1.7189 C   0  0  0  0  0  0  0  0  0  0  0  0
   -5.9044    3.7926    4.4299 H   0  0  0  0  0  0  0  0  0  0  0  0
   -3.4286    4.1699    4.6875 H   0  0  0  0  0  0  0  0  0  0  0  0
   -1.8290    2.8049    3.2867 H   0  0  0  0  0  0  0  0  0  0  0  0
   -6.7568    2.0859    2.7993 H   0  0  0  0  0  0  0  0  0  0  0  0
   -4.3444   -2.2992    0.6304 H   0  0  0  0  0  0  0  0  0  0  0  0
   -6.6666   -2.8383   -0.0971 H   0  0  0  0  0  0  0  0  0  0  0  0
   -7.2780   -2.7573   -2.5294 H   0  0  0  0  0  0  0  0  0  0  0  0
   -5.5433   -2.1251   -4.2281 H   0  0  0  0  0  0  0  0  0  0  0  0
   -3.2184   -1.5781   -3.4984 H   0  0  0  0  0  0  0  0  0  0  0  0
   -2.0813   -3.7523   -2.6461 H   0  0  0  0  0  0  0  0  0  0  0  0
    0.0429   -4.7178   -3.5821 H   0  0  0  0  0  0  0  0  0  0  0  0
    2.2604   -3.6459   -2.9561 H   0  0  0  0  0  0  0  0  0  0  0  0
    2.2240   -1.6541   -1.3993 H   0  0  0  0  0  0  0  0  0  0  0  0
   -4.5076    0.1748    0.8048 H   0  0  0  0  0  0  0  0  0  0  0  0
  2 10  1  0  0  0  0
  3 12  2  0  0  0  0
  4  3  1  0  0  0  0
  6  7  1  0  0  0  0
  6 25  1  0  0  0  0
  7 26  1  0  0  0  0
  8 27  1  0  0  0  0
  8  7  2  0  0  0  0
  9  8  1  0  0  0  0
 10  9  2  0  0  0  0
 10 11  1  0  0  0  0
 11  6  2  0  0  0  0
 12  1  1  0  0  0  0
 12  9  1  0  0  0  0
 13  4  1  0  0  0  0
 14 13  1  0  0  0  0
 14 15  1  0  0  0  0
 15 29  1  0  0  0  0
 16 15  2  0  0  0  0
 16 30  1  0  0  0  0
 17 16  1  0  0  0  0
 18 19  1  0  0  0  0
 18 17  2  0  0  0  0
 19 14  2  0  0  0  0
 20  5  1  0  0  0  0
 20 13  2  0  0  0  0
 21 20  1  0  0  0  0
 22 23  1  0  0  0  0
 22 21  2  0  0  0  0
 23 24  2  0  0  0  0
 24 37  1  0  0  0  0
 24  5  1  0  0  0  0
 28 11  1  0  0  0  0
 31 17  1  0  0  0  0
 32 18  1  0  0  0  0
 33 19  1  0  0  0  0
 34 21  1  0  0  0  0
 35 22  1  0  0  0  0
 36 23  1  0  0  0  0
 38  2  1  0  0  0  0
M  CHG  1   1  -1
M  END
