1,3,4
 OpenBabel05122313063D

 38 40  0  0  1  0  0  0  0  0999 V2000
    1.1449   -1.1356    1.6414 O   0  5  0  0  0  0  0  0  0  0  0  0
    5.3138   -0.5947    1.2824 O   0  0  0  0  0  0  0  0  0  0  0  0
   -0.1561    1.6151   -1.2410 N   0  0  0  0  0  2  0  0  0  0  0  0
    1.9855    0.6624   -0.0233 N   0  0  0  0  0  2  0  0  0  0  0  0
    2.9248   -0.0166    0.6219 N   0  0  0  0  0  0  0  0  0  0  0  0
   -1.2902    2.1332   -1.7275 C   0  0  0  0  0  3  0  0  0  0  0  0
   -1.3094    3.2376   -2.5920 C   0  0  0  0  0  0  0  0  0  0  0  0
   -0.0816    3.8223   -2.9388 C   0  0  0  0  0  0  0  0  0  0  0  0
    1.1052    3.2885   -2.4250 C   0  0  0  0  0  0  0  0  0  0  0  0
    1.0437    2.1644   -1.5694 C   0  0  0  0  0  0  0  0  0  0  0  0
    2.2439    1.5519   -0.9604 C   0  0  2  0  0  3  0  0  0  0  0  0
    3.6157    1.9111   -1.3957 C   0  0  0  0  0  0  0  0  0  0  0  0
    4.6034    2.2667   -0.4498 C   0  0  0  0  0  0  0  0  0  0  0  0
    5.9072    2.5681   -0.8635 C   0  0  0  0  0  0  0  0  0  0  0  0
    6.2480    2.5189   -2.2249 C   0  0  0  0  0  0  0  0  0  0  0  0
    5.2761    2.1643   -3.1737 C   0  0  0  0  0  0  0  0  0  0  0  0
    3.9699    1.8627   -2.7634 C   0  0  0  0  0  0  0  0  0  0  0  0
    2.3869   -0.9373    1.5071 C   0  0  0  0  0  0  0  0  0  0  0  0
    3.3821   -1.6938    2.2862 C   0  0  0  0  0  0  0  0  0  0  0  0
    4.7950   -1.4788    2.1375 C   0  0  0  0  0  0  0  0  0  0  0  0
    5.6820   -2.2463    2.9332 C   0  0  0  0  0  0  0  0  0  0  0  0
    5.1967   -3.1872    3.8408 C   0  0  0  0  0  0  0  0  0  0  0  0
    3.8087   -3.4024    3.9891 C   0  0  0  0  0  0  0  0  0  0  0  0
    2.9215   -2.6579    3.2147 C   0  0  0  0  0  0  0  0  0  0  0  0
   -2.2254    1.6436   -1.4054 H   0  0  0  0  0  0  0  0  0  0  0  0
   -2.2642    3.6293   -2.9698 H   0  0  0  0  0  0  0  0  0  0  0  0
   -0.0479    4.7011   -3.6005 H   0  0  0  0  0  0  0  0  0  0  0  0
    2.0775    3.7409   -2.6620 H   0  0  0  0  0  0  0  0  0  0  0  0
    4.3448    2.2985    0.6179 H   0  0  0  0  0  0  0  0  0  0  0  0
    6.6656    2.8379   -0.1134 H   0  0  0  0  0  0  0  0  0  0  0  0
    7.2745    2.7519   -2.5462 H   0  0  0  0  0  0  0  0  0  0  0  0
    5.5385    2.1139   -4.2414 H   0  0  0  0  0  0  0  0  0  0  0  0
    3.2150    1.5665   -3.5080 H   0  0  0  0  0  0  0  0  0  0  0  0
    6.7600   -2.0696    2.8069 H   0  0  0  0  0  0  0  0  0  0  0  0
    5.9095   -3.7678    4.4473 H   0  0  0  0  0  0  0  0  0  0  0  0
    3.4340   -4.1457    4.7077 H   0  0  0  0  0  0  0  0  0  0  0  0
    1.8329   -2.7900    3.2997 H   0  0  0  0  0  0  0  0  0  0  0  0
    4.5086   -0.1716    0.8024 H   0  0  0  0  0  0  0  0  0  0  0  0
  2 20  1  0  0  0  0
  4  5  1  0  0  0  0
  5 18  2  0  0  0  0
  6 25  1  0  0  0  0
  6  3  1  0  0  0  0
  7  6  1  0  0  0  0
  8  7  2  0  0  0  0
  8  9  1  0  0  0  0
  9 10  2  0  0  0  0
 10  3  1  0  0  0  0
 10 11  1  0  0  0  0
 11  4  1  6  0  0  0
 12 11  1  0  0  0  0
 12 13  1  0  0  0  0
 13 29  1  0  0  0  0
 14 13  2  0  0  0  0
 14 30  1  0  0  0  0
 15 14  1  0  0  0  0
 16 17  1  0  0  0  0
 16 15  2  0  0  0  0
 17 12  2  0  0  0  0
 18  1  1  0  0  0  0
 18 19  1  0  0  0  0
 19 24  1  0  0  0  0
 20 19  2  0  0  0  0
 20 21  1  0  0  0  0
 21 22  2  0  0  0  0
 22 23  1  0  0  0  0
 22 35  1  0  0  0  0
 23 36  1  0  0  0  0
 24 37  1  0  0  0  0
 24 23  2  0  0  0  0
 26  7  1  0  0  0  0
 27  8  1  0  0  0  0
 28  9  1  0  0  0  0
 31 15  1  0  0  0  0
 32 16  1  0  0  0  0
 33 17  1  0  0  0  0
 34 21  1  0  0  0  0
 38  2  1  0  0  0  0
M  CHG  1   1  -1
M  END
