1,5,6
 OpenBabel05122313063D

 46 48  0  0  1  0  0  0  0  0999 V2000
    0.0405   -0.1043   -1.7175 O   0  5  0  0  0  0  0  0  0  0  0  0
   -6.0274   -1.4617   -0.8940 O   0  0  0  0  0  0  0  0  0  0  0  0
   -5.1518   -2.6210    0.7423 O   0  0  0  0  0  0  0  0  0  0  0  0
    0.5677   -0.8599    1.2776 N   0  0  0  0  0  0  0  0  0  0  0  0
    0.0212    2.0958    0.4279 N   0  0  0  0  0  2  0  0  0  0  0  0
    2.9400   -0.7327   -0.1473 N   0  0  0  0  0  2  0  0  0  0  0  0
   -5.0613   -1.8648   -0.2349 N   0  0  0  0  0  0  0  0  0  0  0  0
   -0.3145   -0.2971    2.3144 C   0  0  0  0  0  0  0  0  0  0  0  0
    0.0373    1.1528    2.6853 C   0  0  0  0  0  0  0  0  0  0  0  0
   -0.4830    2.1488    1.6807 C   0  0  2  0  0  3  0  0  0  0  0  0
   -1.4833    3.0798    2.0152 C   0  0  0  0  0  0  0  0  0  0  0  0
   -1.9622    3.9593    1.0361 C   0  0  0  0  0  0  0  0  0  0  0  0
   -1.4256    3.8926   -0.2567 C   0  0  0  0  0  0  0  0  0  0  0  0
   -0.4310    2.9452   -0.5182 C   0  0  0  0  0  0  0  0  0  0  0  0
    1.7917   -1.3910    1.8786 C   0  0  0  0  0  0  0  0  0  0  0  0
    2.8888   -1.6191    0.8644 C   0  0  2  0  0  3  0  0  0  0  0  0
    3.8415   -2.6422    0.9871 C   0  0  0  0  0  0  0  0  0  0  0  0
    4.8675   -2.7260    0.0354 C   0  0  0  0  0  0  0  0  0  0  0  0
    4.9127   -1.7889   -1.0075 C   0  0  0  0  0  0  0  0  0  0  0  0
    3.9226   -0.8007   -1.0655 C   0  0  0  0  0  0  0  0  0  0  0  0
   -0.1151   -1.9193    0.4780 C   0  0  0  0  0  0  0  0  0  0  0  0
   -1.3294   -1.4291   -0.2564 C   0  0  0  0  0  0  0  0  0  0  0  0
   -2.6114   -1.8592    0.0937 C   0  0  0  0  0  0  0  0  0  0  0  0
   -3.7302   -1.4165   -0.6303 C   0  0  0  0  0  0  0  0  0  0  0  0
   -3.5782   -0.5462   -1.7287 C   0  0  0  0  0  0  0  0  0  0  0  0
   -2.3078   -0.1149   -2.0891 C   0  0  0  0  0  0  0  0  0  0  0  0
   -1.1389   -0.5239   -1.3668 C   0  0  0  0  0  0  0  0  0  0  0  0
   -0.2978   -0.9397    3.2277 H   0  0  0  0  0  0  0  0  0  0  0  0
   -1.3508   -0.3277    1.9253 H   0  0  0  0  0  0  0  0  0  0  0  0
   -0.3934    1.3836    3.6789 H   0  0  0  0  0  0  0  0  0  0  0  0
    1.1392    1.2662    2.7852 H   0  0  0  0  0  0  0  0  0  0  0  0
   -1.8804    3.1056    3.0405 H   0  0  0  0  0  0  0  0  0  0  0  0
   -2.7472    4.6903    1.2822 H   0  0  0  0  0  0  0  0  0  0  0  0
   -1.7665    4.5644   -1.0569 H   0  0  0  0  0  0  0  0  0  0  0  0
    0.0592    2.8548   -1.5016 H   0  0  0  0  0  0  0  0  0  0  0  0
    1.5960   -2.3323    2.4485 H   0  0  0  0  0  0  0  0  0  0  0  0
    2.1684   -0.6495    2.6177 H   0  0  0  0  0  0  0  0  0  0  0  0
    3.7736   -3.3599    1.8181 H   0  0  0  0  0  0  0  0  0  0  0  0
    5.6254   -3.5209    0.1068 H   0  0  0  0  0  0  0  0  0  0  0  0
    5.7012   -1.8211   -1.7726 H   0  0  0  0  0  0  0  0  0  0  0  0
    3.8882   -0.0075   -1.8335 H   0  0  0  0  0  0  0  0  0  0  0  0
   -0.3867   -2.7729    1.1448 H   0  0  0  0  0  0  0  0  0  0  0  0
    0.6333   -2.2892   -0.2549 H   0  0  0  0  0  0  0  0  0  0  0  0
   -2.7777   -2.5534    0.9308 H   0  0  0  0  0  0  0  0  0  0  0  0
   -4.4789   -0.2283   -2.2714 H   0  0  0  0  0  0  0  0  0  0  0  0
   -2.1572    0.5621   -2.9429 H   0  0  0  0  0  0  0  0  0  0  0  0
  1 27  1  0  0  0  0
  2  7  2  0  0  0  0
  4 15  1  0  0  0  0
  4  8  1  0  0  0  0
  5 10  1  0  0  0  0
  6 16  1  0  0  0  0
  7  3  2  0  0  0  0
  8  9  1  0  0  0  0
  8 28  1  0  0  0  0
  9 31  1  0  0  0  0
  9 30  1  0  0  0  0
 10 11  1  0  0  0  0
 10  9  1  6  0  0  0
 11 32  1  0  0  0  0
 12 33  1  0  0  0  0
 12 11  2  0  0  0  0
 13 12  1  0  0  0  0
 14 13  2  0  0  0  0
 14  5  1  0  0  0  0
 15 36  1  0  0  0  0
 15 37  1  0  0  0  0
 16 17  1  0  0  0  0
 16 15  1  1  0  0  0
 17 38  1  0  0  0  0
 18 39  1  0  0  0  0
 18 17  2  0  0  0  0
 19 18  1  0  0  0  0
 20 19  2  0  0  0  0
 20  6  1  0  0  0  0
 21 42  1  0  0  0  0
 21  4  1  0  0  0  0
 22 23  1  0  0  0  0
 22 21  1  0  0  0  0
 23 44  1  0  0  0  0
 24  7  1  0  0  0  0
 24 23  2  0  0  0  0
 25 24  1  0  0  0  0
 26 25  2  0  0  0  0
 26 27  1  0  0  0  0
 27 22  2  0  0  0  0
 29  8  1  0  0  0  0
 34 13  1  0  0  0  0
 35 14  1  0  0  0  0
 40 19  1  0  0  0  0
 41 20  1  0  0  0  0
 43 21  1  0  0  0  0
 45 25  1  0  0  0  0
 46 26  1  0  0  0  0
M  CHG  1   1  -1
M  END
