1,10,31
 OpenBabel05122313063D

 83 86  0  0  1  0  0  0  0  0999 V2000
   -1.8587   -1.6838    0.0225 O   0  5  0  0  0  0  0  0  0  0  0  0
   -2.8961   -0.9385    0.0724 C   0  0  0  0  0  0  0  0  0  0  0  0
   -4.2385   -1.4561    0.2375 C   0  0  0  0  0  0  0  0  0  0  0  0
   -5.2025   -0.5404    0.6338 C   0  0  0  0  0  0  0  0  0  0  0  0
   -6.2144   -0.9127    0.8422 H   0  0  0  0  0  0  0  0  0  0  0  0
   -4.9599    0.8658    0.8343 C   0  0  0  0  0  0  0  0  0  0  0  0
   -3.7069    1.3817    0.5322 C   0  0  0  0  0  0  0  0  0  0  0  0
   -3.4915    2.4504    0.6472 H   0  0  0  0  0  0  0  0  0  0  0  0
   -2.6925    0.5210    0.0189 C   0  0  0  0  0  0  0  0  0  0  0  0
   -1.5080    0.8617   -0.5350 N   0  0  0  0  0  2  0  0  0  0  0  0
   -1.1350    2.1587   -0.8376 C   0  0  0  0  0  0  0  0  0  0  0  0
   -2.0691    3.0858   -1.3834 C   0  0  0  0  0  0  0  0  0  0  0  0
   -3.0943    2.7401   -1.5700 H   0  0  0  0  0  0  0  0  0  0  0  0
   -1.6981    4.3824   -1.7299 C   0  0  0  0  0  0  0  0  0  0  0  0
   -2.4491    5.0591   -2.1652 H   0  0  0  0  0  0  0  0  0  0  0  0
   -0.3729    4.8233   -1.5374 C   0  0  0  0  0  0  0  0  0  0  0  0
   -0.0813    5.8512   -1.7963 H   0  0  0  0  0  0  0  0  0  0  0  0
    0.5742    3.9300   -1.0451 C   0  0  0  0  0  0  0  0  0  0  0  0
    1.6197    4.2445   -0.9233 H   0  0  0  0  0  0  0  0  0  0  0  0
    0.2329    2.5938   -0.7091 C   0  0  0  0  0  0  0  0  0  0  0  0
    1.2905    1.7060   -0.2819 C   0  0  2  0  0  3  0  0  0  0  0  0
    2.5441    2.2275   -0.0914 O   0  0  0  0  0  0  0  0  0  0  0  0
    3.3600    1.1562    0.2267 C   0  0  0  0  0  0  0  0  0  0  0  0
    4.7362    1.1529    0.5122 C   0  0  0  0  0  0  0  0  0  0  0  0
    5.2426   -0.1333    0.7797 C   0  0  0  0  0  0  0  0  0  0  0  0
    6.3140   -0.2191    1.0030 H   0  0  0  0  0  0  0  0  0  0  0  0
    4.4723   -1.3322    0.7705 C   0  0  0  0  0  0  0  0  0  0  0  0
    3.0996   -1.2653    0.4926 C   0  0  0  0  0  0  0  0  0  0  0  0
    2.4491   -2.1459    0.4356 H   0  0  0  0  0  0  0  0  0  0  0  0
    2.5620   -0.0001    0.2196 C   0  0  0  0  0  0  0  0  0  0  0  0
    1.2594    0.3920   -0.0912 N   0  0  0  0  0  2  0  0  0  0  0  0
   -4.5093   -2.9559    0.0666 C   0  0  0  0  0  0  0  0  0  0  0  0
   -4.0033   -3.4063   -1.3254 C   0  0  0  0  0  0  0  0  0  0  0  0
   -2.9163   -3.2341   -1.4391 H   0  0  0  0  0  0  0  0  0  0  0  0
   -4.5349   -2.8620   -2.1325 H   0  0  0  0  0  0  0  0  0  0  0  0
   -4.1959   -4.4902   -1.4618 H   0  0  0  0  0  0  0  0  0  0  0  0
   -6.0120   -3.2696    0.1664 C   0  0  0  0  0  0  0  0  0  0  0  0
   -6.1753   -4.3507   -0.0143 H   0  0  0  0  0  0  0  0  0  0  0  0
   -6.6023   -2.7102   -0.5881 H   0  0  0  0  0  0  0  0  0  0  0  0
   -6.4226   -3.0387    1.1707 H   0  0  0  0  0  0  0  0  0  0  0  0
   -3.7685   -3.7480    1.1716 C   0  0  0  0  0  0  0  0  0  0  0  0
   -2.6761   -3.5935    1.1035 H   0  0  0  0  0  0  0  0  0  0  0  0
   -3.9783   -4.8321    1.0618 H   0  0  0  0  0  0  0  0  0  0  0  0
   -4.1099   -3.4330    2.1791 H   0  0  0  0  0  0  0  0  0  0  0  0
   -6.1107    1.7417    1.3509 C   0  0  0  0  0  0  0  0  0  0  0  0
   -5.6901    3.2114    1.5179 C   0  0  0  0  0  0  0  0  0  0  0  0
   -5.3736    3.6628    0.5559 H   0  0  0  0  0  0  0  0  0  0  0  0
   -4.8576    3.3214    2.2417 H   0  0  0  0  0  0  0  0  0  0  0  0
   -6.5444    3.8059    1.8987 H   0  0  0  0  0  0  0  0  0  0  0  0
   -6.5740    1.2066    2.7264 C   0  0  0  0  0  0  0  0  0  0  0  0
   -7.4119    1.8217    3.1147 H   0  0  0  0  0  0  0  0  0  0  0  0
   -5.7473    1.2434    3.4640 H   0  0  0  0  0  0  0  0  0  0  0  0
   -6.9273    0.1583    2.6665 H   0  0  0  0  0  0  0  0  0  0  0  0
   -7.2866    1.6790    0.3483 C   0  0  0  0  0  0  0  0  0  0  0  0
   -8.1335    2.2979    0.7100 H   0  0  0  0  0  0  0  0  0  0  0  0
   -7.6619    0.6456    0.2113 H   0  0  0  0  0  0  0  0  0  0  0  0
   -6.9793    2.0616   -0.6460 H   0  0  0  0  0  0  0  0  0  0  0  0
    5.5802    2.4331    0.5134 C   0  0  0  0  0  0  0  0  0  0  0  0
    5.0062    3.4164    1.5602 C   0  0  0  0  0  0  0  0  0  0  0  0
    5.5996    4.3538    1.5700 H   0  0  0  0  0  0  0  0  0  0  0  0
    5.0431    2.9759    2.5769 H   0  0  0  0  0  0  0  0  0  0  0  0
    3.9542    3.6813    1.3393 H   0  0  0  0  0  0  0  0  0  0  0  0
    7.0493    2.1459    0.8635 C   0  0  0  0  0  0  0  0  0  0  0  0
    7.1534    1.6979    1.8723 H   0  0  0  0  0  0  0  0  0  0  0  0
    7.6244    3.0934    0.8573 H   0  0  0  0  0  0  0  0  0  0  0  0
    7.5230    1.4632    0.1298 H   0  0  0  0  0  0  0  0  0  0  0  0
    5.5245    3.0748   -0.8928 C   0  0  0  0  0  0  0  0  0  0  0  0
    6.1233    4.0086   -0.9112 H   0  0  0  0  0  0  0  0  0  0  0  0
    4.4876    3.3287   -1.1864 H   0  0  0  0  0  0  0  0  0  0  0  0
    5.9371    2.3861   -1.6571 H   0  0  0  0  0  0  0  0  0  0  0  0
    5.1766   -2.6749    1.0372 C   0  0  0  0  0  0  0  0  0  0  0  0
    4.1856   -3.8516    1.0080 C   0  0  0  0  0  0  0  0  0  0  0  0
    4.7268   -4.8018    1.1890 H   0  0  0  0  0  0  0  0  0  0  0  0
    3.6712   -3.9365    0.0300 H   0  0  0  0  0  0  0  0  0  0  0  0
    3.4096   -3.7536    1.7936 H   0  0  0  0  0  0  0  0  0  0  0  0
    6.2431   -2.9068   -0.0578 C   0  0  0  0  0  0  0  0  0  0  0  0
    5.7755   -2.9380   -1.0622 H   0  0  0  0  0  0  0  0  0  0  0  0
    6.7650   -3.8714    0.1106 H   0  0  0  0  0  0  0  0  0  0  0  0
    7.0097   -2.1062   -0.0646 H   0  0  0  0  0  0  0  0  0  0  0  0
    5.8555   -2.6366    2.4246 C   0  0  0  0  0  0  0  0  0  0  0  0
    6.6166   -1.8337    2.4939 H   0  0  0  0  0  0  0  0  0  0  0  0
    6.3665   -3.5998    2.6297 H   0  0  0  0  0  0  0  0  0  0  0  0
    5.1089   -2.4658    3.2264 H   0  0  0  0  0  0  0  0  0  0  0  0
  1  2  1  0  0  0  0
  2  3  1  0  0  0  0
  3  4  2  0  0  0  0
  4  6  1  0  0  0  0
  4  5  1  0  0  0  0
  6 45  1  0  0  0  0
  7  8  1  0  0  0  0
  7  6  2  0  0  0  0
  9  2  2  0  0  0  0
  9  7  1  0  0  0  0
 10  9  1  0  0  0  0
 11 20  1  0  0  0  0
 11 10  1  0  0  0  0
 12 11  2  0  0  0  0
 13 12  1  0  0  0  0
 14 16  2  0  0  0  0
 14 12  1  0  0  0  0
 15 14  1  0  0  0  0
 16 18  1  0  0  0  0
 17 16  1  0  0  0  0
 18 19  1  0  0  0  0
 18 20  2  0  0  0  0
 21 20  1  6  0  0  0
 21 22  1  0  0  0  0
 21 31  1  0  0  0  0
 22 23  1  0  0  0  0
 23 24  1  0  0  0  0
 24 58  1  0  0  0  0
 24 25  2  0  0  0  0
 25 26  1  0  0  0  0
 27 25  1  0  0  0  0
 27 71  1  0  0  0  0
 28 27  2  0  0  0  0
 29 28  1  0  0  0  0
 30 23  2  0  0  0  0
 30 28  1  0  0  0  0
 31 30  1  0  0  0  0
 32 37  1  0  0  0  0
 32  3  1  0  0  0  0
 32 41  1  0  0  0  0
 33 32  1  0  0  0  0
 34 33  1  0  0  0  0
 35 33  1  0  0  0  0
 36 33  1  0  0  0  0
 37 40  1  0  0  0  0
 38 37  1  0  0  0  0
 39 37  1  0  0  0  0
 41 44  1  0  0  0  0
 42 41  1  0  0  0  0
 43 41  1  0  0  0  0
 45 46  1  0  0  0  0
 45 50  1  0  0  0  0
 46 49  1  0  0  0  0
 46 48  1  0  0  0  0
 47 46  1  0  0  0  0
 50 51  1  0  0  0  0
 50 52  1  0  0  0  0
 53 50  1  0  0  0  0
 54 55  1  0  0  0  0
 54 45  1  0  0  0  0
 56 54  1  0  0  0  0
 57 54  1  0  0  0  0
 58 63  1  0  0  0  0
 58 59  1  0  0  0  0
 59 60  1  0  0  0  0
 59 61  1  0  0  0  0
 62 59  1  0  0  0  0
 63 64  1  0  0  0  0
 65 63  1  0  0  0  0
 66 63  1  0  0  0  0
 67 58  1  0  0  0  0
 68 67  1  0  0  0  0
 69 67  1  0  0  0  0
 70 67  1  0  0  0  0
 71 80  1  0  0  0  0
 72 71  1  0  0  0  0
 72 73  1  0  0  0  0
 72 75  1  0  0  0  0
 74 72  1  0  0  0  0
 76 78  1  0  0  0  0
 76 71  1  0  0  0  0
 77 76  1  0  0  0  0
 79 76  1  0  0  0  0
 80 81  1  0  0  0  0
 80 82  1  0  0  0  0
 80 83  1  0  0  0  0
M  CHG  1   1  -1
M  END
