1,4,7
q = -1.0, confidence = 0.01

 17 16  0  0  1  0  0  0  0  0999 V2000
   -0.9111   -0.1295    1.5934 N   0  0  0  0  0  0  0  0  0  0  0  0
   -0.6875   -0.9762    2.1360 H   0  0  0  0  0  0  0  0  0  0  0  0
   -0.9021    0.6496    2.2688 H   0  0  0  0  0  0  0  0  0  0  0  0
   -0.6536    1.7758   -0.5808 N   0  0  0  0  0  0  0  0  0  0  0  0
   -0.4491    2.5428    0.0774 H   0  0  0  0  0  0  0  0  0  0  0  0
   -0.2580    2.0822   -1.4809 H   0  0  0  0  0  0  0  0  0  0  0  0
   -0.9154   -1.0778   -0.8580 O   0  5  0  0  0  0  0  0  0  0  0  0
   -3.0394   -1.8139   -0.7323 O   0  0  0  0  0  0  0  0  0  0  0  0
   -2.1073   -1.1763   -0.2858 C   0  0  0  0  0  0  0  0  0  0  0  0
   -2.2553   -0.2794    0.9671 C   0  0  2  0  0  0  0  0  0  0  0  0
   -2.9637   -0.7511    1.6767 H   0  0  0  0  0  0  0  0  0  0  0  0
   -2.7981    1.0859    0.5192 C   0  0  0  0  0  0  0  0  0  0  0  0
   -3.8775    0.9656    0.3012 H   0  0  0  0  0  0  0  0  0  0  0  0
   -2.7337    1.8141    1.3598 H   0  0  0  0  0  0  0  0  0  0  0  0
   -2.1291    1.6382   -0.7371 C   0  0  0  0  0  0  0  0  0  0  0  0
   -2.3096    0.9612   -1.5945 H   0  0  0  0  0  0  0  0  0  0  0  0
   -2.5668    2.6244   -0.9980 H   0  0  0  0  0  0  0  0  0  0  0  0
  1  2  1  0  0  0  0
  1  3  1  0  0  0  0
  4  5  1  0  0  0  0
  6  4  1  0  0  0  0
  7  9  1  0  0  0  0
  8  9  2  0  0  0  0
  9 10  1  0  0  0  0
 10  1  1  0  0  0  0
 10 11  1  1  0  0  0
 12 10  1  0  0  0  0
 12 14  1  0  0  0  0
 13 12  1  0  0  0  0
 15  4  1  0  0  0  0
 15 12  1  0  0  0  0
 16 15  1  0  0  0  0
 17 15  1  0  0  0  0
M  CHG  1   7  -1
M  END
