1,7,13
 OpenBabel05122313063D

 30 32  0  0  0  0  0  0  0  0999 V2000
   -2.2277   -0.2106    0.0844 N   0  0  0  0  0  2  0  0  0  0  0  0
   -3.3613   -0.9391    0.1871 C   0  0  0  0  0  0  0  0  0  0  0  0
   -4.6158   -0.3308    0.2771 C   0  0  0  0  0  0  0  0  0  0  0  0
   -4.6990    1.0706    0.2592 C   0  0  0  0  0  0  0  0  0  0  0  0
   -3.5221    1.8181    0.1505 C   0  0  0  0  0  0  0  0  0  0  0  0
   -2.2838    1.1573    0.0627 C   0  0  0  0  0  0  0  0  0  0  0  0
    0.1138    1.0032   -0.0242 N   0  0  0  0  0  2  0  0  0  0  0  0
   -0.9808    1.8330   -0.0476 C   0  0  0  0  0  0  0  0  0  0  0  0
   -0.8480    3.2182   -0.1720 C   0  0  0  0  0  0  0  0  0  0  0  0
    0.4424    3.7524   -0.3105 C   0  0  0  0  0  0  0  0  0  0  0  0
    1.5405    2.9027   -0.2688 C   0  0  0  0  0  0  0  0  0  0  0  0
    1.3918    1.4969   -0.0763 C   0  0  0  0  0  0  0  0  0  0  0  0
    1.4952   -1.5690   -0.2559 O   0  5  0  0  0  0  0  0  0  0  0  0
    2.5409   -0.8113   -0.0670 C   0  0  0  0  0  0  0  0  0  0  0  0
    2.5671    0.6336    0.0561 C   0  0  0  0  0  0  0  0  0  0  0  0
    3.8331    1.2476    0.3121 C   0  0  0  0  0  0  0  0  0  0  0  0
    5.0194    0.5348    0.3971 C   0  0  0  0  0  0  0  0  0  0  0  0
    4.9925   -0.8692    0.2188 C   0  0  0  0  0  0  0  0  0  0  0  0
    3.7894   -1.5160   -0.0024 C   0  0  0  0  0  0  0  0  0  0  0  0
   -3.1998   -2.0309    0.1842 H   0  0  0  0  0  0  0  0  0  0  0  0
   -5.5142   -0.9584    0.3600 H   0  0  0  0  0  0  0  0  0  0  0  0
   -5.6720    1.5783    0.3302 H   0  0  0  0  0  0  0  0  0  0  0  0
   -3.5601    2.9152    0.1381 H   0  0  0  0  0  0  0  0  0  0  0  0
   -1.7334    3.8657   -0.1902 H   0  0  0  0  0  0  0  0  0  0  0  0
    0.5848    4.8325   -0.4608 H   0  0  0  0  0  0  0  0  0  0  0  0
    2.5451    3.3167   -0.4095 H   0  0  0  0  0  0  0  0  0  0  0  0
    3.8748    2.3306    0.4903 H   0  0  0  0  0  0  0  0  0  0  0  0
    5.9625    1.0564    0.6144 H   0  0  0  0  0  0  0  0  0  0  0  0
    5.9243   -1.4533    0.2737 H   0  0  0  0  0  0  0  0  0  0  0  0
    3.7303   -2.6068   -0.1246 H   0  0  0  0  0  0  0  0  0  0  0  0
  1  2  1  0  0  0  0
  2  3  2  0  0  0  0
  3 21  1  0  0  0  0
  4  3  1  0  0  0  0
  4 22  1  0  0  0  0
  5  4  2  0  0  0  0
  6  1  1  0  0  0  0
  6  5  1  0  0  0  0
  8  7  1  0  0  0  0
  8  6  2  0  0  0  0
  9  8  1  0  0  0  0
 10 11  1  0  0  0  0
 10  9  2  0  0  0  0
 11 12  2  0  0  0  0
 12  7  1  0  0  0  0
 12 15  1  0  0  0  0
 13 14  1  0  0  0  0
 14 19  2  0  0  0  0
 14 15  1  0  0  0  0
 15 16  2  0  0  0  0
 16 17  1  0  0  0  0
 16 27  1  0  0  0  0
 17 28  1  0  0  0  0
 18 29  1  0  0  0  0
 18 17  2  0  0  0  0
 19 18  1  0  0  0  0
 20  2  1  0  0  0  0
 23  5  1  0  0  0  0
 24  9  1  0  0  0  0
 25 10  1  0  0  0  0
 26 11  1  0  0  0  0
 30 19  1  0  0  0  0
M  CHG  1  13  -1
M  END
