2,3,6
 OpenBabel05122313063D

 63 65  0  0  1  0  0  0  0  0999 V2000
   -1.9108    1.5753   -0.9786 N   0  0  0  0  0  0  0  0  0  0  0  0
   -0.8056    0.7726   -0.6682 N   0  0  0  0  0  2  0  0  0  0  0  0
    0.8706   -1.4029    0.1080 O   0  5  0  0  0  0  0  0  0  0  0  0
    3.1903   -1.0048    0.2147 C   0  0  0  0  0  0  0  0  0  0  0  0
    1.6417    0.8366   -0.4029 C   0  0  0  0  0  0  0  0  0  0  0  0
   -3.1326   -0.9982   -0.3581 N   0  0  0  0  0  2  0  0  0  0  0  0
   -2.4890    2.3030    0.0993 C   0  0  0  0  0  0  0  0  0  0  0  0
   -1.9354    2.2642    1.3979 C   0  0  0  0  0  0  0  0  0  0  0  0
   -1.0625    1.6313    1.6031 H   0  0  0  0  0  0  0  0  0  0  0  0
   -3.6295    3.1065   -0.1337 C   0  0  0  0  0  0  0  0  0  0  0  0
   -4.0723    3.1645   -1.1377 H   0  0  0  0  0  0  0  0  0  0  0  0
    4.0546    1.2923   -0.2708 C   0  0  0  0  0  0  0  0  0  0  0  0
    1.8362   -0.5455   -0.0276 C   0  0  0  0  0  0  0  0  0  0  0  0
   -2.8074    0.8852   -1.9022 C   0  0  0  0  0  0  0  0  0  0  0  0
   -2.1694    0.3558   -2.6376 H   0  0  0  0  0  0  0  0  0  0  0  0
   -3.4149    1.6223   -2.4592 H   0  0  0  0  0  0  0  0  0  0  0  0
   -4.1917    3.8550    0.9075 C   0  0  0  0  0  0  0  0  0  0  0  0
   -5.0750    4.4788    0.7019 H   0  0  0  0  0  0  0  0  0  0  0  0
    2.7610    1.7203   -0.5139 C   0  0  0  0  0  3  0  0  0  0  0  0
    2.5552    2.7616   -0.8005 H   0  0  0  0  0  0  0  0  0  0  0  0
   -2.5089    3.0209    2.4294 C   0  0  0  0  0  0  0  0  0  0  0  0
   -2.0638    2.9724    3.4348 H   0  0  0  0  0  0  0  0  0  0  0  0
   -3.6375    3.8207    2.1970 C   0  0  0  0  0  0  0  0  0  0  0  0
   -4.0824    4.4108    3.0114 H   0  0  0  0  0  0  0  0  0  0  0  0
    0.3646    1.3854   -0.7026 C   0  0  0  0  0  0  0  0  0  0  0  0
    0.3293    2.4484   -1.0028 H   0  0  0  0  0  0  0  0  0  0  0  0
    4.2222   -0.0793    0.0892 C   0  0  0  0  0  0  0  0  0  0  0  0
    5.2455   -0.4294    0.2800 H   0  0  0  0  0  0  0  0  0  0  0  0
   -3.7165   -0.0889   -1.1807 C   0  0  2  0  0  3  0  0  0  0  0  0
   -5.1112   -0.0028   -1.2950 C   0  0  0  0  0  0  0  0  0  0  0  0
   -5.5452    0.7464   -1.9730 H   0  0  0  0  0  0  0  0  0  0  0  0
    3.4528   -2.4725    0.6014 C   0  0  0  0  0  0  0  0  0  0  0  0
   -5.3121   -1.7755    0.3161 C   0  0  0  0  0  0  0  0  0  0  0  0
   -5.8991   -2.4634    0.9408 H   0  0  0  0  0  0  0  0  0  0  0  0
   -5.9268   -0.8581   -0.5443 C   0  0  0  0  0  0  0  0  0  0  0  0
   -7.0227   -0.7997   -0.6224 H   0  0  0  0  0  0  0  0  0  0  0  0
    5.2876    2.2040   -0.3713 C   0  0  0  0  0  0  0  0  0  0  0  0
    2.7273   -2.8077    1.9275 C   0  0  0  0  0  0  0  0  0  0  0  0
    2.9632   -3.8494    2.2292 H   0  0  0  0  0  0  0  0  0  0  0  0
    3.0627   -2.1326    2.7416 H   0  0  0  0  0  0  0  0  0  0  0  0
    1.6309   -2.7225    1.8175 H   0  0  0  0  0  0  0  0  0  0  0  0
   -3.9165   -1.8210    0.3826 C   0  0  0  0  0  0  0  0  0  0  0  0
   -3.3726   -2.5517    1.0001 H   0  0  0  0  0  0  0  0  0  0  0  0
    4.9553   -2.7426    0.8027 C   0  0  0  0  0  0  0  0  0  0  0  0
    5.5420   -2.5529   -0.1196 H   0  0  0  0  0  0  0  0  0  0  0  0
    5.3858   -2.1297    1.6212 H   0  0  0  0  0  0  0  0  0  0  0  0
    5.1012   -3.8070    1.0748 H   0  0  0  0  0  0  0  0  0  0  0  0
    2.9463   -3.4117   -0.5206 C   0  0  0  0  0  0  0  0  0  0  0  0
    3.4436   -3.1771   -1.4843 H   0  0  0  0  0  0  0  0  0  0  0  0
    3.1844   -4.4643   -0.2617 H   0  0  0  0  0  0  0  0  0  0  0  0
    1.8517   -3.3307   -0.6507 H   0  0  0  0  0  0  0  0  0  0  0  0
    4.9085    3.6398   -0.7709 C   0  0  0  0  0  0  0  0  0  0  0  0
    4.4124    3.6729   -1.7621 H   0  0  0  0  0  0  0  0  0  0  0  0
    4.2304    4.1076   -0.0286 H   0  0  0  0  0  0  0  0  0  0  0  0
    5.8198    4.2681   -0.8330 H   0  0  0  0  0  0  0  0  0  0  0  0
    6.2553    1.6399   -1.4366 C   0  0  0  0  0  0  0  0  0  0  0  0
    6.5893    0.6131   -1.1871 H   0  0  0  0  0  0  0  0  0  0  0  0
    5.7686    1.6028   -2.4321 H   0  0  0  0  0  0  0  0  0  0  0  0
    7.1608    2.2768   -1.5170 H   0  0  0  0  0  0  0  0  0  0  0  0
    6.0013    2.2508    0.9992 C   0  0  0  0  0  0  0  0  0  0  0  0
    6.3266    1.2439    1.3286 H   0  0  0  0  0  0  0  0  0  0  0  0
    6.9038    2.8947    0.9469 H   0  0  0  0  0  0  0  0  0  0  0  0
    5.3292    2.6596    1.7806 H   0  0  0  0  0  0  0  0  0  0  0  0
  1  2  1  0  0  0  0
  1  7  1  0  0  0  0
  4 32  1  0  0  0  0
  5 13  1  0  0  0  0
  6 42  1  0  0  0  0
  7  8  1  0  0  0  0
  8  9  1  0  0  0  0
  8 21  2  0  0  0  0
 10  7  2  0  0  0  0
 10 17  1  0  0  0  0
 11 10  1  0  0  0  0
 12 27  2  0  0  0  0
 13  3  1  0  0  0  0
 13  4  2  0  0  0  0
 14  1  1  0  0  0  0
 15 14  1  0  0  0  0
 16 14  1  0  0  0  0
 17 23  2  0  0  0  0
 18 17  1  0  0  0  0
 19  5  1  0  0  0  0
 19 12  1  0  0  0  0
 20 19  1  0  0  0  0
 21 22  1  0  0  0  0
 23 21  1  0  0  0  0
 23 24  1  0  0  0  0
 25  2  1  0  0  0  0
 25  5  2  0  0  0  0
 26 25  1  0  0  0  0
 27  4  1  0  0  0  0
 27 28  1  0  0  0  0
 29 14  1  1  0  0  0
 29  6  1  0  0  0  0
 30 29  1  0  0  0  0
 30 35  2  0  0  0  0
 31 30  1  0  0  0  0
 32 44  1  0  0  0  0
 32 38  1  0  0  0  0
 33 42  2  0  0  0  0
 33 34  1  0  0  0  0
 35 33  1  0  0  0  0
 36 35  1  0  0  0  0
 37 12  1  0  0  0  0
 37 60  1  0  0  0  0
 38 39  1  0  0  0  0
 38 40  1  0  0  0  0
 41 38  1  0  0  0  0
 42 43  1  0  0  0  0
 44 47  1  0  0  0  0
 44 46  1  0  0  0  0
 45 44  1  0  0  0  0
 48 50  1  0  0  0  0
 48 32  1  0  0  0  0
 49 48  1  0  0  0  0
 51 48  1  0  0  0  0
 52 37  1  0  0  0  0
 52 54  1  0  0  0  0
 53 52  1  0  0  0  0
 55 52  1  0  0  0  0
 56 57  1  0  0  0  0
 56 37  1  0  0  0  0
 58 56  1  0  0  0  0
 59 56  1  0  0  0  0
 60 61  1  0  0  0  0
 60 63  1  0  0  0  0
 62 60  1  0  0  0  0
M  CHG  1   3  -1
M  END
