1,2,4
 OpenBabel05122313063D

 43 45  0  0  1  0  0  0  0  0999 V2000
   -0.1590   -0.3508    2.3393 O   0  5  0  0  0  0  0  0  0  0  0  0
   -1.1116    1.8530   -0.2911 N   0  0  0  0  0  2  0  0  0  0  0  0
    1.9897   -0.6151    2.9788 O   0  0  0  0  0  0  0  0  0  0  0  0
   -1.8319   -1.5566   -0.3476 N   0  0  0  0  0  2  0  0  0  0  0  0
    0.1376    2.9954   -1.9892 C   0  0  0  0  0  0  0  0  0  0  0  0
    0.9324    2.9662   -2.7495 H   0  0  0  0  0  0  0  0  0  0  0  0
   -0.1551    1.8436   -1.2423 C   0  0  2  0  0  3  0  0  0  0  0  0
    0.5336    0.5145   -1.4916 C   0  0  0  0  0  0  0  0  0  0  0  0
   -0.0774   -0.0421   -2.2372 H   0  0  0  0  0  0  0  0  0  0  0  0
    1.5319    0.6805   -1.9623 H   0  0  0  0  0  0  0  0  0  0  0  0
    0.5998   -0.2774   -0.2759 N   0  0  0  0  0  0  0  0  0  0  0  0
    1.5592    0.2169    0.7423 C   0  0  2  0  0  0  0  0  0  0  0  0
    1.3916    1.3156    0.7933 H   0  0  0  0  0  0  0  0  0  0  0  0
    3.0034   -0.0185    0.3565 C   0  0  0  0  0  0  0  0  0  0  0  0
    3.6473   -1.2492    0.6057 C   0  0  0  0  0  0  0  0  0  0  0  0
    3.1332   -2.0097    1.2092 H   0  0  0  0  0  0  0  0  0  0  0  0
    4.9503   -1.4786    0.1435 C   0  0  0  0  0  0  0  0  0  0  0  0
    5.4421   -2.4403    0.3564 H   0  0  0  0  0  0  0  0  0  0  0  0
    5.6387   -0.4820   -0.5693 C   0  0  0  0  0  0  0  0  0  0  0  0
    6.6646   -0.6638   -0.9243 H   0  0  0  0  0  0  0  0  0  0  0  0
    5.0182    0.7529   -0.8076 C   0  0  0  0  0  0  0  0  0  0  0  0
    5.5558    1.5478   -1.3471 H   0  0  0  0  0  0  0  0  0  0  0  0
    3.7114    0.9788   -0.3454 C   0  0  0  0  0  0  0  0  0  0  0  0
    3.2339    1.9586   -0.5135 H   0  0  0  0  0  0  0  0  0  0  0  0
    1.1262   -0.3158    2.1592 C   0  0  0  0  0  0  0  0  0  0  0  0
    0.5914   -1.7177   -0.4867 C   0  0  0  0  0  0  0  0  0  0  0  0
    0.8300   -2.1969    0.4872 H   0  0  0  0  0  0  0  0  0  0  0  0
    1.3634   -2.0726   -1.2086 H   0  0  0  0  0  0  0  0  0  0  0  0
   -0.7847   -2.2014   -0.9036 C   0  0  1  0  0  3  0  0  0  0  0  0
   -0.9838   -3.2831   -1.7755 C   0  0  0  0  0  0  0  0  0  0  0  0
   -0.1168   -3.7893   -2.2255 H   0  0  0  0  0  0  0  0  0  0  0  0
   -2.2941   -3.6981   -2.0548 C   0  0  0  0  0  0  0  0  0  0  0  0
   -2.4736   -4.5443   -2.7355 H   0  0  0  0  0  0  0  0  0  0  0  0
   -3.3695   -3.0191   -1.4631 C   0  0  0  0  0  0  0  0  0  0  0  0
   -4.4104   -3.3130   -1.6592 H   0  0  0  0  0  0  0  0  0  0  0  0
   -3.0933   -1.9428   -0.6103 C   0  0  0  0  0  0  0  0  0  0  0  0
   -3.8713   -1.3448   -0.1005 H   0  0  0  0  0  0  0  0  0  0  0  0
   -0.5951    4.1661   -1.7470 C   0  0  0  0  0  0  0  0  0  0  0  0
   -0.3804    5.0825   -2.3174 H   0  0  0  0  0  0  0  0  0  0  0  0
   -1.6002    4.1534   -0.7688 C   0  0  0  0  0  0  0  0  0  0  0  0
   -2.1992    5.0490   -0.5506 H   0  0  0  0  0  0  0  0  0  0  0  0
   -1.8283    2.9682   -0.0584 C   0  0  0  0  0  0  0  0  0  0  0  0
   -2.6116    2.8585    0.7133 H   0  0  0  0  0  0  0  0  0  0  0  0
  2 42  1  0  0  0  0
  5 38  2  0  0  0  0
  5  7  1  0  0  0  0
  6  5  1  0  0  0  0
  7  8  1  6  0  0  0
  7  2  1  0  0  0  0
  8 11  1  0  0  0  0
  9  8  1  0  0  0  0
 10  8  1  0  0  0  0
 11 12  1  0  0  0  0
 12 13  1  1  0  0  0
 12 25  1  0  0  0  0
 14 15  1  0  0  0  0
 14 12  1  0  0  0  0
 15 16  1  0  0  0  0
 17 18  1  0  0  0  0
 17 15  2  0  0  0  0
 19 17  1  0  0  0  0
 20 19  1  0  0  0  0
 21 19  2  0  0  0  0
 21 23  1  0  0  0  0
 22 21  1  0  0  0  0
 23 14  2  0  0  0  0
 24 23  1  0  0  0  0
 25  1  1  0  0  0  0
 25  3  2  0  0  0  0
 26 11  1  0  0  0  0
 26 27  1  0  0  0  0
 28 26  1  0  0  0  0
 29 26  1  1  0  0  0
 29  4  1  0  0  0  0
 30 29  1  0  0  0  0
 31 30  1  0  0  0  0
 32 30  2  0  0  0  0
 32 34  1  0  0  0  0
 33 32  1  0  0  0  0
 34 36  2  0  0  0  0
 35 34  1  0  0  0  0
 36  4  1  0  0  0  0
 36 37  1  0  0  0  0
 38 40  1  0  0  0  0
 39 38  1  0  0  0  0
 40 41  1  0  0  0  0
 40 42  2  0  0  0  0
 42 43  1  0  0  0  0
M  CHG  1   1  -1
M  END
