3,16,29
 OpenBabel05122313063D

 29 30  0  0  0  0  0  0  0  0999 V2000
   -5.3124   -3.7681   -0.6713 I   0  0  0  0  0  0  0  0  0  0  0  0
   -4.3827    1.9692    1.1872 I   0  0  0  0  0  0  0  0  0  0  0  0
   -1.1955    0.9946   -1.9014 N   0  0  0  0  0  2  0  0  0  0  0  0
   -2.2696    1.7882   -2.0581 C   0  0  0  0  0  3  0  0  0  0  0  0
   -2.1774    2.8181   -1.6762 H   0  0  0  0  0  0  0  0  0  0  0  0
   -3.4657    1.3433   -2.6320 C   0  0  0  0  0  0  0  0  0  0  0  0
   -4.3238    2.0248   -2.7138 H   0  0  0  0  0  0  0  0  0  0  0  0
   -3.5462    0.0075   -3.0547 C   0  0  0  0  0  0  0  0  0  0  0  0
   -4.4766   -0.3921   -3.4848 H   0  0  0  0  0  0  0  0  0  0  0  0
   -2.4338   -0.8238   -2.8845 C   0  0  0  0  0  0  0  0  0  0  0  0
   -2.4739   -1.8873   -3.1607 H   0  0  0  0  0  0  0  0  0  0  0  0
   -1.2749   -0.2962   -2.2905 C   0  0  0  0  0  0  0  0  0  0  0  0
   -0.0371   -1.1337   -2.0249 C   0  0  0  0  0  0  0  0  0  0  0  0
   -0.2617   -2.2072   -2.2179 H   0  0  0  0  0  0  0  0  0  0  0  0
    0.7624   -0.8345   -2.7371 H   0  0  0  0  0  0  0  0  0  0  0  0
    0.4610   -0.8966   -0.6669 N   0  0  0  0  0  0  0  0  0  0  0  0
    1.4699   -1.0941   -0.6075 H   0  0  0  0  0  0  0  0  0  0  0  0
   -0.2394   -1.6802    0.3893 C   0  0  0  0  0  0  0  0  0  0  0  0
    0.2071   -1.3535    1.3512 H   0  0  0  0  0  0  0  0  0  0  0  0
   -0.0323   -2.7664    0.2618 H   0  0  0  0  0  0  0  0  0  0  0  0
   -1.7260   -1.4440    0.3870 C   0  0  0  0  0  0  0  0  0  0  0  0
   -2.6117   -2.4692    0.0214 C   0  0  0  0  0  0  0  0  0  0  0  0
   -2.2089   -3.4583   -0.2458 H   0  0  0  0  0  0  0  0  0  0  0  0
   -3.9914   -2.2297   -0.0279 C   0  0  0  0  0  0  0  0  0  0  0  0
   -4.5098   -0.9693    0.3199 C   0  0  0  0  0  0  0  0  0  0  0  0
   -5.5907   -0.7759    0.2880 H   0  0  0  0  0  0  0  0  0  0  0  0
   -3.6221    0.0419    0.6979 C   0  0  0  0  0  0  0  0  0  0  0  0
   -2.1980   -0.1269    0.7416 C   0  0  0  0  0  0  0  0  0  0  0  0
   -1.3867    0.8383    1.0381 O   0  5  0  0  0  0  0  0  0  0  0  0
  1 24  1  0  0  0  0
  4  3  1  0  0  0  0
  4  5  1  0  0  0  0
  6  4  1  0  0  0  0
  7  6  1  0  0  0  0
  8 10  1  0  0  0  0
  8  6  2  0  0  0  0
  9  8  1  0  0  0  0
 10 12  2  0  0  0  0
 11 10  1  0  0  0  0
 12 13  1  0  0  0  0
 12  3  1  0  0  0  0
 13 16  1  0  0  0  0
 14 13  1  0  0  0  0
 15 13  1  0  0  0  0
 16 17  1  0  0  0  0
 16 18  1  0  0  0  0
 18 19  1  0  0  0  0
 20 18  1  0  0  0  0
 21 18  1  0  0  0  0
 21 28  1  0  0  0  0
 22 21  2  0  0  0  0
 23 22  1  0  0  0  0
 24 22  1  0  0  0  0
 24 25  2  0  0  0  0
 25 27  1  0  0  0  0
 26 25  1  0  0  0  0
 27 28  2  0  0  0  0
 27  2  1  0  0  0  0
 28 29  1  0  0  0  0
M  CHG  1  29  -1
M  END
