2,4,5
 OpenBabel05122313063D

 41 43  0  0  0  0  0  0  0  0999 V2000
    1.9935    0.2105   -0.0250 N   0  0  0  0  0  2  0  0  0  0  0  0
    0.7448    0.6679    0.0359 N   0  0  0  0  0  2  0  0  0  0  0  0
   -0.8570    2.3615    0.0482 N   0  0  0  0  0  0  0  0  0  0  0  0
   -1.7351    1.3226   -0.0400 N   0  0  0  0  0  2  0  0  0  0  0  0
   -2.6304   -1.2765    0.3515 O   0  5  0  0  0  0  0  0  0  0  0  0
    8.2627   -1.5604   -0.2840 C   0  0  0  0  0  0  0  0  0  0  0  0
    9.0950   -0.8337   -0.3516 H   0  0  0  0  0  0  0  0  0  0  0  0
    8.3339   -2.2430   -1.1567 H   0  0  0  0  0  0  0  0  0  0  0  0
    8.4257   -2.1833    0.6204 H   0  0  0  0  0  0  0  0  0  0  0  0
    6.9224   -0.8743   -0.2380 C   0  0  0  0  0  0  0  0  0  0  0  0
    5.7292   -1.6253   -0.1465 C   0  0  0  0  0  0  0  0  0  0  0  0
    5.7852   -2.7249   -0.1078 H   0  0  0  0  0  0  0  0  0  0  0  0
    4.4797   -1.0052   -0.1036 C   0  0  0  0  0  0  0  0  0  0  0  0
    3.5569   -1.5980   -0.0311 H   0  0  0  0  0  0  0  0  0  0  0  0
    4.3719    0.4049   -0.1507 C   0  0  0  0  0  0  0  0  0  0  0  0
    5.5600    1.1598   -0.2409 C   0  0  0  0  0  0  0  0  0  0  0  0
    5.5263    2.2583   -0.2788 H   0  0  0  0  0  0  0  0  0  0  0  0
    6.8099    0.5285   -0.2839 C   0  0  0  0  0  0  0  0  0  0  0  0
    7.7222    1.1415   -0.3545 H   0  0  0  0  0  0  0  0  0  0  0  0
    3.0351    1.0443   -0.1035 C   0  0  0  0  0  0  0  0  0  0  0  0
    2.8355    2.4520   -0.1453 C   0  0  0  0  0  0  0  0  0  0  0  0
    3.6786    3.1484   -0.2291 H   0  0  0  0  0  0  0  0  0  0  0  0
    1.5375    2.9352   -0.1012 C   0  0  0  0  0  0  0  0  0  0  0  0
    1.3401    4.0121   -0.1670 H   0  0  0  0  0  0  0  0  0  0  0  0
    0.4729    2.0171    0.0020 C   0  0  0  0  0  0  0  0  0  0  0  0
   -1.3216    3.7281    0.1615 C   0  0  0  0  0  0  0  0  0  0  0  0
   -0.5048    4.3614    0.5453 H   0  0  0  0  0  0  0  0  0  0  0  0
   -2.1524    3.7680    0.8945 H   0  0  0  0  0  0  0  0  0  0  0  0
   -1.6748    4.1388   -0.8091 H   0  0  0  0  0  0  0  0  0  0  0  0
   -3.0184    1.5517   -0.2614 C   0  0  0  0  0  3  0  0  0  0  0  0
   -3.3530    2.5873   -0.4359 H   0  0  0  0  0  0  0  0  0  0  0  0
   -4.0425    0.5537   -0.3178 C   0  0  0  0  0  0  0  0  0  0  0  0
   -3.8141   -0.8334   -0.0148 C   0  0  0  0  0  0  0  0  0  0  0  0
   -4.8998   -1.7472   -0.0604 C   0  0  0  0  0  0  0  0  0  0  0  0
   -4.6910   -2.7987    0.1808 H   0  0  0  0  0  0  0  0  0  0  0  0
   -6.1734   -1.3125   -0.4096 C   0  0  0  0  0  0  0  0  0  0  0  0
   -7.0002   -2.0379   -0.4513 H   0  0  0  0  0  0  0  0  0  0  0  0
   -6.4153    0.0506   -0.7118 C   0  0  0  0  0  0  0  0  0  0  0  0
   -7.4261    0.3869   -0.9836 H   0  0  0  0  0  0  0  0  0  0  0  0
   -5.3665    0.9585   -0.6586 C   0  0  0  0  0  0  0  0  0  0  0  0
   -5.5449    2.0217   -0.8859 H   0  0  0  0  0  0  0  0  0  0  0  0
  1  2  1  0  0  0  0
  3 26  1  0  0  0  0
  4  3  1  0  0  0  0
  6 10  1  0  0  0  0
  6  9  1  0  0  0  0
  7  6  1  0  0  0  0
  8  6  1  0  0  0  0
 10 11  1  0  0  0  0
 11 12  1  0  0  0  0
 11 13  2  0  0  0  0
 13 14  1  0  0  0  0
 15 13  1  0  0  0  0
 15 20  1  0  0  0  0
 16 15  2  0  0  0  0
 17 16  1  0  0  0  0
 18 16  1  0  0  0  0
 18 10  2  0  0  0  0
 19 18  1  0  0  0  0
 20  1  1  0  0  0  0
 21 20  2  0  0  0  0
 21 23  1  0  0  0  0
 22 21  1  0  0  0  0
 23 25  2  0  0  0  0
 24 23  1  0  0  0  0
 25  2  1  0  0  0  0
 25  3  1  0  0  0  0
 26 27  1  0  0  0  0
 26 28  1  0  0  0  0
 29 26  1  0  0  0  0
 30  4  1  0  0  0  0
 31 30  1  0  0  0  0
 32 30  1  0  0  0  0
 32 33  1  0  0  0  0
 33  5  1  0  0  0  0
 34 33  2  0  0  0  0
 34 35  1  0  0  0  0
 36 34  1  0  0  0  0
 37 36  1  0  0  0  0
 38 40  1  0  0  0  0
 38 36  2  0  0  0  0
 39 38  1  0  0  0  0
 40 32  2  0  0  0  0
 41 40  1  0  0  0  0
M  CHG  1   5  -1
M  END
