5,7,17
 OpenBabel05122313063D

 39 39  0  0  0  0  0  0  0  0999 V2000
   -0.4160   -1.4638    2.6792 C   0  0  0  0  0  0  0  0  0  0  0  0
    0.0202   -2.3531    2.1931 H   0  0  0  0  0  0  0  0  0  0  0  0
    0.3908   -0.7201    2.7933 H   0  0  0  0  0  0  0  0  0  0  0  0
   -0.8194   -1.7497    3.6770 H   0  0  0  0  0  0  0  0  0  0  0  0
    1.0566   -0.3143    0.6083 O   0  5  0  0  0  0  0  0  0  0  0  0
    3.4227    0.8023    0.7365 O   0  0  0  0  0  0  0  0  0  0  0  0
   -0.5606   -2.2524   -0.4359 N   0  0  0  0  0  2  0  0  0  0  0  0
   -1.7789   -3.0502   -0.4137 C   0  0  0  0  0  0  0  0  0  0  0  0
   -1.5718   -4.0595   -0.8308 H   0  0  0  0  0  0  0  0  0  0  0  0
   -2.5471   -2.5530   -1.0417 H   0  0  0  0  0  0  0  0  0  0  0  0
   -2.2968   -3.1839    1.0222 C   0  0  0  0  0  0  0  0  0  0  0  0
   -3.2379   -3.7713    1.0008 H   0  0  0  0  0  0  0  0  0  0  0  0
   -1.5768   -3.7731    1.6298 H   0  0  0  0  0  0  0  0  0  0  0  0
   -2.6234   -1.8571    1.7027 C   0  0  0  0  0  0  0  0  0  0  0  0
   -3.4220   -1.3431    1.1363 H   0  0  0  0  0  0  0  0  0  0  0  0
   -3.0198   -2.0606    2.7254 H   0  0  0  0  0  0  0  0  0  0  0  0
   -1.4910   -0.8920    1.8431 N   0  0  0  0  0  0  0  0  0  0  0  0
   -2.0169    0.3149    2.5109 C   0  0  0  0  0  0  0  0  0  0  0  0
   -2.8127    0.7714    1.8943 H   0  0  0  0  0  0  0  0  0  0  0  0
   -2.4465    0.0500    3.5037 H   0  0  0  0  0  0  0  0  0  0  0  0
   -1.2050    1.0481    2.6587 H   0  0  0  0  0  0  0  0  0  0  0  0
    0.5813   -2.8502   -0.6465 C   0  0  0  0  0  3  0  0  0  0  0  0
    0.5398   -3.9226   -0.9280 H   0  0  0  0  0  0  0  0  0  0  0  0
    1.8919   -2.2736   -0.5275 C   0  0  0  0  0  0  0  0  0  0  0  0
    2.0487   -1.0030    0.1067 C   0  0  0  0  0  0  0  0  0  0  0  0
    3.3706   -0.4442    0.1917 C   0  0  0  0  0  0  0  0  0  0  0  0
    4.5567    1.6167    0.4434 C   0  0  0  0  0  0  0  0  0  0  0  0
    4.8082    1.5204   -0.6370 H   0  0  0  0  0  0  0  0  0  0  0  0
    5.4394    1.2703    1.0311 H   0  0  0  0  0  0  0  0  0  0  0  0
    4.2027    3.0520    0.7844 C   0  0  0  0  0  0  0  0  0  0  0  0
    5.0727    3.7148    0.6085 H   0  0  0  0  0  0  0  0  0  0  0  0
    3.3645    3.3977    0.1476 H   0  0  0  0  0  0  0  0  0  0  0  0
    3.9060    3.1435    1.8488 H   0  0  0  0  0  0  0  0  0  0  0  0
    4.4687   -1.1583   -0.2958 C   0  0  0  0  0  0  0  0  0  0  0  0
    5.4752   -0.7212   -0.2372 H   0  0  0  0  0  0  0  0  0  0  0  0
    4.2995   -2.4364   -0.8826 C   0  0  0  0  0  0  0  0  0  0  0  0
    5.1791   -2.9789   -1.2577 H   0  0  0  0  0  0  0  0  0  0  0  0
    3.0301   -2.9863   -0.9989 C   0  0  0  0  0  0  0  0  0  0  0  0
    2.8846   -3.9693   -1.4727 H   0  0  0  0  0  0  0  0  0  0  0  0
  1  3  1  0  0  0  0
  1  4  1  0  0  0  0
  2  1  1  0  0  0  0
  7  8  1  0  0  0  0
  8 11  1  0  0  0  0
  9  8  1  0  0  0  0
 10  8  1  0  0  0  0
 11 13  1  0  0  0  0
 11 14  1  0  0  0  0
 12 11  1  0  0  0  0
 14 17  1  0  0  0  0
 14 16  1  0  0  0  0
 15 14  1  0  0  0  0
 17 18  1  0  0  0  0
 17  1  1  0  0  0  0
 18 21  1  0  0  0  0
 18 20  1  0  0  0  0
 19 18  1  0  0  0  0
 22 24  1  0  0  0  0
 22  7  1  0  0  0  0
 23 22  1  0  0  0  0
 24 25  1  0  0  0  0
 25 26  2  0  0  0  0
 25  5  1  0  0  0  0
 26  6  1  0  0  0  0
 27  6  1  0  0  0  0
 27 30  1  0  0  0  0
 27 29  1  0  0  0  0
 28 27  1  0  0  0  0
 30 33  1  0  0  0  0
 31 30  1  0  0  0  0
 32 30  1  0  0  0  0
 34 35  1  0  0  0  0
 34 26  1  0  0  0  0
 36 34  2  0  0  0  0
 37 36  1  0  0  0  0
 38 36  1  0  0  0  0
 38 24  2  0  0  0  0
 39 38  1  0  0  0  0
M  CHG  1   5  -1
M  END
