1,3,28
 OpenBabel05122313063D

 33 33  0  0  0  0  0  0  0  0999 V2000
    1.1655   -0.0688    0.8002 O   0  5  0  0  0  0  0  0  0  0  0  0
    3.2609    1.5087    1.0166 O   0  0  0  0  0  0  0  0  0  0  0  0
   -0.0007   -2.2474   -0.2991 N   0  0  0  0  0  2  0  0  0  0  0  0
    2.2813   -0.4929    0.2537 C   0  0  0  0  0  0  0  0  0  0  0  0
    3.4559    0.3252    0.3682 C   0  0  0  0  0  0  0  0  0  0  0  0
    4.2935    2.4729    0.9494 C   0  0  0  0  0  0  0  0  0  0  0  0
    3.9108    3.3794    1.4547 H   0  0  0  0  0  0  0  0  0  0  0  0
    5.2158    2.1348    1.4739 H   0  0  0  0  0  0  0  0  0  0  0  0
    4.5471    2.7224   -0.1050 H   0  0  0  0  0  0  0  0  0  0  0  0
    4.6681   -0.1024   -0.1834 C   0  0  0  0  0  0  0  0  0  0  0  0
    5.5585    0.5373   -0.1157 H   0  0  0  0  0  0  0  0  0  0  0  0
    4.7620   -1.3474   -0.8496 C   0  0  0  0  0  0  0  0  0  0  0  0
    5.7266   -1.6606   -1.2739 H   0  0  0  0  0  0  0  0  0  0  0  0
    3.6397   -2.1559   -0.9765 C   0  0  0  0  0  0  0  0  0  0  0  0
    3.6985   -3.1214   -1.5019 H   0  0  0  0  0  0  0  0  0  0  0  0
    2.3896   -1.7323   -0.4488 C   0  0  0  0  0  0  0  0  0  0  0  0
    1.2366   -2.5892   -0.5339 C   0  0  0  0  0  3  0  0  0  0  0  0
    1.4249   -3.6518   -0.7922 H   0  0  0  0  0  0  0  0  0  0  0  0
   -1.0159   -3.2841   -0.1761 C   0  0  0  0  0  0  0  0  0  0  0  0
   -0.6146   -4.2500   -0.5522 H   0  0  0  0  0  0  0  0  0  0  0  0
   -1.9013   -2.9977   -0.7819 H   0  0  0  0  0  0  0  0  0  0  0  0
   -1.4197   -3.4318    1.2965 C   0  0  0  0  0  0  0  0  0  0  0  0
   -2.1749   -4.2401    1.3812 H   0  0  0  0  0  0  0  0  0  0  0  0
   -0.5354   -3.7583    1.8894 H   0  0  0  0  0  0  0  0  0  0  0  0
   -2.0193   -2.1724    1.9168 C   0  0  0  0  0  0  0  0  0  0  0  0
   -2.9514   -1.8918    1.3873 H   0  0  0  0  0  0  0  0  0  0  0  0
   -2.2911   -2.3799    2.9771 H   0  0  0  0  0  0  0  0  0  0  0  0
   -1.1140   -1.0000    1.8769 N   0  0  0  0  0  0  0  0  0  0  0  0
   -0.1769   -1.2682    2.2189 H   0  0  0  0  0  0  0  0  0  0  0  0
   -1.6121    0.0967    2.7203 C   0  0  0  0  0  0  0  0  0  0  0  0
   -0.8579    0.9017    2.7649 H   0  0  0  0  0  0  0  0  0  0  0  0
   -2.5464    0.5029    2.2874 H   0  0  0  0  0  0  0  0  0  0  0  0
   -1.8289   -0.2585    3.7518 H   0  0  0  0  0  0  0  0  0  0  0  0
  3 19  1  0  0  0  0
  4  5  1  0  0  0  0
  4  1  1  0  0  0  0
  5  2  1  0  0  0  0
  6  2  1  0  0  0  0
  6  7  1  0  0  0  0
  6  8  1  0  0  0  0
  9  6  1  0  0  0  0
 10 11  1  0  0  0  0
 10  5  2  0  0  0  0
 12 10  1  0  0  0  0
 13 12  1  0  0  0  0
 14 12  2  0  0  0  0
 14 16  1  0  0  0  0
 15 14  1  0  0  0  0
 16  4  2  0  0  0  0
 17 16  1  0  0  0  0
 17  3  1  0  0  0  0
 18 17  1  0  0  0  0
 19 22  1  0  0  0  0
 20 19  1  0  0  0  0
 21 19  1  0  0  0  0
 22 23  1  0  0  0  0
 22 24  1  0  0  0  0
 22 25  1  0  0  0  0
 25 27  1  0  0  0  0
 26 25  1  0  0  0  0
 28 25  1  0  0  0  0
 28 29  1  0  0  0  0
 28 30  1  0  0  0  0
 30 31  1  0  0  0  0
 30 33  1  0  0  0  0
 32 30  1  0  0  0  0
M  CHG  1   1  -1
M  END
