1,2,3
 OpenBabel05122313063D

 51 52  0  0  1  0  0  0  0  0999 V2000
    1.1996   -1.1230    0.0003 N   0  0  0  0  0  2  0  0  0  0  0  0
   -0.2226    1.1041    0.0003 O   0  5  0  0  0  0  0  0  0  0  0  0
    3.2927   -0.4572   -0.0001 N   0  0  0  0  0  2  0  0  0  0  0  0
    5.2779   -1.7979    0.0004 C   0  0  0  0  0  0  0  0  0  0  0  0
    0.0705   -1.7689    0.0002 C   0  0  0  0  0  3  0  0  0  0  0  0
    0.0540   -2.8795    0.0002 H   0  0  0  0  0  0  0  0  0  0  0  0
    2.5089   -1.5643    0.0003 C   0  0  1  0  0  3  0  0  0  0  0  0
   -3.7051    0.1114   -0.0000 C   0  0  0  0  0  0  0  0  0  0  0  0
   -4.6991    0.5776   -0.0001 H   0  0  0  0  0  0  0  0  0  0  0  0
   -2.7288    2.4926    0.0001 C   0  0  0  0  0  0  0  0  0  0  0  0
   -3.6444   -1.3089   -0.0001 C   0  0  0  0  0  0  0  0  0  0  0  0
   -4.6786   -3.6372   -0.0002 C   0  0  0  0  0  0  0  0  0  0  0  0
   -4.1122   -3.9549    0.8986 H   0  0  0  0  0  0  0  0  0  0  0  0
   -4.1121   -3.9549   -0.8990 H   0  0  0  0  0  0  0  0  0  0  0  0
   -5.6391   -4.1902   -0.0003 H   0  0  0  0  0  0  0  0  0  0  0  0
   -4.9479   -2.1230   -0.0002 C   0  0  0  0  0  0  0  0  0  0  0  0
   -1.1990   -1.0952    0.0001 C   0  0  0  0  0  0  0  0  0  0  0  0
   -2.3792   -1.8868    0.0000 C   0  0  0  0  0  0  0  0  0  0  0  0
   -2.2579   -2.9795   -0.0000 H   0  0  0  0  0  0  0  0  0  0  0  0
    3.0650   -2.8536    0.0010 C   0  0  0  0  0  0  0  0  0  0  0  0
    2.4280   -3.7489    0.0018 H   0  0  0  0  0  0  0  0  0  0  0  0
   -1.2979    0.3435    0.0002 C   0  0  0  0  0  0  0  0  0  0  0  0
    4.6227   -0.5493    0.0001 C   0  0  0  0  0  0  0  0  0  0  0  0
    5.1804    0.4009    0.0002 H   0  0  0  0  0  0  0  0  0  0  0  0
   -5.7667   -1.7707   -1.2632 C   0  0  0  0  0  0  0  0  0  0  0  0
   -6.0230   -0.6932   -1.3019 H   0  0  0  0  0  0  0  0  0  0  0  0
   -6.7179   -2.3418   -1.2790 H   0  0  0  0  0  0  0  0  0  0  0  0
   -5.2006   -2.0162   -2.1842 H   0  0  0  0  0  0  0  0  0  0  0  0
    4.4614   -2.9514    0.0011 C   0  0  0  0  0  0  0  0  0  0  0  0
    4.9342   -3.9463    0.0019 H   0  0  0  0  0  0  0  0  0  0  0  0
   -2.5918    0.9591    0.0001 C   0  0  0  0  0  0  0  0  0  0  0  0
   -2.0660    3.0758    1.2726 C   0  0  0  0  0  0  0  0  0  0  0  0
   -2.5611    2.6848    2.1848 H   0  0  0  0  0  0  0  0  0  0  0  0
   -2.1699    4.1802    1.2746 H   0  0  0  0  0  0  0  0  0  0  0  0
   -0.9900    2.8333    1.3344 H   0  0  0  0  0  0  0  0  0  0  0  0
   -2.0657    3.0759   -1.2722 C   0  0  0  0  0  0  0  0  0  0  0  0
   -2.1697    4.1804   -1.2741 H   0  0  0  0  0  0  0  0  0  0  0  0
   -2.5606    2.6851   -2.1845 H   0  0  0  0  0  0  0  0  0  0  0  0
   -0.9897    2.8335   -1.3337 H   0  0  0  0  0  0  0  0  0  0  0  0
   -4.2057    2.9284   -0.0000 C   0  0  0  0  0  0  0  0  0  0  0  0
   -4.7479    2.5719    0.8996 H   0  0  0  0  0  0  0  0  0  0  0  0
   -4.7477    2.5719   -0.8998 H   0  0  0  0  0  0  0  0  0  0  0  0
   -4.2586    4.0351   -0.0000 H   0  0  0  0  0  0  0  0  0  0  0  0
   -5.7670   -1.7707    1.2627 C   0  0  0  0  0  0  0  0  0  0  0  0
   -5.2009   -2.0163    2.1838 H   0  0  0  0  0  0  0  0  0  0  0  0
   -6.7180   -2.3420    1.2784 H   0  0  0  0  0  0  0  0  0  0  0  0
   -6.0233   -0.6933    1.3014 H   0  0  0  0  0  0  0  0  0  0  0  0
    6.7787   -1.8918   -0.0015 C   0  0  0  0  0  0  0  0  0  0  0  0
    7.2486   -0.8903    0.0187 H   0  0  0  0  0  0  0  0  0  0  0  0
    7.1452   -2.4216   -0.9052 H   0  0  0  0  0  0  0  0  0  0  0  0
    7.1459   -2.4592    0.8784 H   0  0  0  0  0  0  0  0  0  0  0  0
  3 23  1  0  0  0  0
  3  7  1  0  0  0  0
  4 29  1  0  0  0  0
  5  1  1  0  0  0  0
  6  5  1  0  0  0  0
  7  1  1  1  0  0  0
  7 20  1  0  0  0  0
  8 31  1  0  0  0  0
  9  8  1  0  0  0  0
 10 32  1  0  0  0  0
 11  8  2  0  0  0  0
 11 18  1  0  0  0  0
 12 16  1  0  0  0  0
 12 13  1  0  0  0  0
 14 12  1  0  0  0  0
 15 12  1  0  0  0  0
 16 11  1  0  0  0  0
 16 44  1  0  0  0  0
 17 22  1  0  0  0  0
 17  5  1  0  0  0  0
 18 17  2  0  0  0  0
 19 18  1  0  0  0  0
 20 29  2  0  0  0  0
 20 21  1  0  0  0  0
 22  2  1  0  0  0  0
 23 24  1  0  0  0  0
 23  4  2  0  0  0  0
 25 16  1  0  0  0  0
 26 25  1  0  0  0  0
 27 25  1  0  0  0  0
 28 25  1  0  0  0  0
 29 30  1  0  0  0  0
 31 10  1  0  0  0  0
 31 22  2  0  0  0  0
 32 34  1  0  0  0  0
 32 35  1  0  0  0  0
 32 33  1  0  0  0  0
 36 10  1  0  0  0  0
 37 36  1  0  0  0  0
 38 36  1  0  0  0  0
 39 36  1  0  0  0  0
 40 10  1  0  0  0  0
 40 41  1  0  0  0  0
 42 40  1  0  0  0  0
 43 40  1  0  0  0  0
 44 46  1  0  0  0  0
 44 47  1  0  0  0  0
 44 45  1  0  0  0  0
 48  4  1  0  0  0  0
 48 49  1  0  0  0  0
 48 51  1  0  0  0  0
 50 48  1  0  0  0  0
M  CHG  1   2  -1
M  END
