1,2,4
 OpenBabel05122313063D

 58 59  0  0  1  0  0  0  0  0999 V2000
   -0.3618    1.1155   -0.2949 O   0  0  0  0  0  1  0  0  0  0  0  0
    1.0076   -1.4729   -0.0360 N   0  0  0  0  0  2  0  0  0  0  0  0
    4.0517   -1.0418   -0.3836 N   0  0  0  0  0  0  0  0  0  0  0  0
    3.5255    0.0985    0.1471 N   0  0  0  0  0  2  0  0  0  0  0  0
   -1.4288    0.3885   -0.1307 C   0  0  1  0  0  3  0  0  0  0  0  0
   -2.7157    1.0638   -0.1044 C   0  0  0  0  0  0  0  0  0  0  0  0
   -3.8672    0.2945    0.0422 C   0  0  0  0  0  0  0  0  0  0  0  0
   -4.8327    0.8176    0.0671 H   0  0  0  0  0  0  0  0  0  0  0  0
   -3.8867   -1.1251    0.1578 C   0  0  0  0  0  0  0  0  0  0  0  0
   -2.6574   -1.7650    0.1253 C   0  0  0  0  0  0  0  0  0  0  0  0
   -2.5949   -2.8606    0.2056 H   0  0  0  0  0  0  0  0  0  0  0  0
   -1.4268   -1.0529   -0.0009 C   0  0  0  0  0  0  0  0  0  0  0  0
   -2.7873    2.5979   -0.2365 C   0  0  0  0  0  0  0  0  0  0  0  0
   -1.9883    3.2642    0.9095 C   0  0  0  0  0  0  0  0  0  0  0  0
   -0.9268    2.9592    0.8830 H   0  0  0  0  0  0  0  0  0  0  0  0
   -2.4133    2.9831    1.8951 H   0  0  0  0  0  0  0  0  0  0  0  0
   -2.0418    4.3693    0.8171 H   0  0  0  0  0  0  0  0  0  0  0  0
   -2.2115    3.0295   -1.6067 C   0  0  0  0  0  0  0  0  0  0  0  0
   -2.8052    2.5900   -2.4345 H   0  0  0  0  0  0  0  0  0  0  0  0
   -1.1617    2.7025   -1.7142 H   0  0  0  0  0  0  0  0  0  0  0  0
   -2.2509    4.1345   -1.7063 H   0  0  0  0  0  0  0  0  0  0  0  0
   -4.2353    3.1160   -0.1554 C   0  0  0  0  0  0  0  0  0  0  0  0
   -4.2344    4.2205   -0.2520 H   0  0  0  0  0  0  0  0  0  0  0  0
   -4.7146    2.8676    0.8137 H   0  0  0  0  0  0  0  0  0  0  0  0
   -4.8709    2.7129   -0.9703 H   0  0  0  0  0  0  0  0  0  0  0  0
   -5.2296   -1.8577    0.3075 C   0  0  0  0  0  0  0  0  0  0  0  0
   -5.9421   -1.3656    1.5881 C   0  0  0  0  0  0  0  0  0  0  0  0
   -6.9226   -1.8718    1.7106 H   0  0  0  0  0  0  0  0  0  0  0  0
   -6.1292   -0.2736    1.5593 H   0  0  0  0  0  0  0  0  0  0  0  0
   -5.3279   -1.5773    2.4867 H   0  0  0  0  0  0  0  0  0  0  0  0
   -6.1184   -1.5578   -0.9212 C   0  0  0  0  0  0  0  0  0  0  0  0
   -5.6326   -1.9092   -1.8541 H   0  0  0  0  0  0  0  0  0  0  0  0
   -6.3123   -0.4723   -1.0324 H   0  0  0  0  0  0  0  0  0  0  0  0
   -7.1006   -2.0670   -0.8283 H   0  0  0  0  0  0  0  0  0  0  0  0
   -5.0450   -3.3809    0.4110 C   0  0  0  0  0  0  0  0  0  0  0  0
   -4.4336   -3.6612    1.2927 H   0  0  0  0  0  0  0  0  0  0  0  0
   -4.5573   -3.7974   -0.4937 H   0  0  0  0  0  0  0  0  0  0  0  0
   -6.0316   -3.8761    0.5170 H   0  0  0  0  0  0  0  0  0  0  0  0
   -0.2415   -1.8621   -0.0372 C   0  0  0  0  0  0  0  0  0  0  0  0
   -0.4330   -2.9583   -0.0778 H   0  0  0  0  0  0  0  0  0  0  0  0
    2.0445   -2.4816   -0.1521 C   0  0  0  0  0  0  0  0  0  0  0  0
    1.6372   -3.4309   -0.5696 H   0  0  0  0  0  0  0  0  0  0  0  0
    2.4710   -2.7182    0.8501 H   0  0  0  0  0  0  0  0  0  0  0  0
    3.1873   -1.9981   -1.0562 C   0  0  0  0  0  0  0  0  0  0  0  0
    3.8241   -2.8508   -1.3557 H   0  0  0  0  0  0  0  0  0  0  0  0
    2.7664   -1.5351   -1.9733 H   0  0  0  0  0  0  0  0  0  0  0  0
    6.1920   -2.3756   -0.4292 C   0  0  0  0  0  0  0  0  0  0  0  0
    5.7948   -3.3370   -0.0404 H   0  0  0  0  0  0  0  0  0  0  0  0
    7.2178   -2.2569   -0.0348 H   0  0  0  0  0  0  0  0  0  0  0  0
    6.2653   -2.4651   -1.5331 H   0  0  0  0  0  0  0  0  0  0  0  0
    5.3602   -1.2077   -0.0117 C   0  0  2  0  0  3  0  0  0  0  0  0
    5.6781   -0.1102    0.7873 C   0  0  0  0  0  0  0  0  0  0  0  0
    6.6439    0.0933    1.2607 H   0  0  0  0  0  0  0  0  0  0  0  0
    4.5065    0.6801    0.8753 C   0  0  0  0  0  0  0  0  0  0  0  0
    4.3049    1.9342    1.6600 C   0  0  0  0  0  0  0  0  0  0  0  0
    4.4928    2.8386    1.0476 H   0  0  0  0  0  0  0  0  0  0  0  0
    4.9996    1.9555    2.5214 H   0  0  0  0  0  0  0  0  0  0  0  0
    3.2645    1.9987    2.0289 H   0  0  0  0  0  0  0  0  0  0  0  0
  3 51  1  0  0  0  0
  3  4  1  0  0  0  0
  4 54  1  0  0  0  0
  5  1  1  6  0  0  0
  5  6  1  0  0  0  0
  5 12  1  0  0  0  0
  6  7  2  0  0  0  0
  7  8  1  0  0  0  0
  7  9  1  0  0  0  0
  9 26  1  0  0  0  0
 10  9  2  0  0  0  0
 10 11  1  0  0  0  0
 12 10  1  0  0  0  0
 13 22  1  0  0  0  0
 13  6  1  0  0  0  0
 13 14  1  0  0  0  0
 14 16  1  0  0  0  0
 15 14  1  0  0  0  0
 17 14  1  0  0  0  0
 18 13  1  0  0  0  0
 19 18  1  0  0  0  0
 20 18  1  0  0  0  0
 21 18  1  0  0  0  0
 22 24  1  0  0  0  0
 23 22  1  0  0  0  0
 25 22  1  0  0  0  0
 26 35  1  0  0  0  0
 26 27  1  0  0  0  0
 27 28  1  0  0  0  0
 27 30  1  0  0  0  0
 29 27  1  0  0  0  0
 31 34  1  0  0  0  0
 31 26  1  0  0  0  0
 32 31  1  0  0  0  0
 33 31  1  0  0  0  0
 35 38  1  0  0  0  0
 35 36  1  0  0  0  0
 37 35  1  0  0  0  0
 39  2  1  0  0  0  0
 39 12  2  0  0  0  0
 40 39  1  0  0  0  0
 41  2  1  0  0  0  0
 41 43  1  0  0  0  0
 42 41  1  0  0  0  0
 44  3  1  0  0  0  0
 44 41  1  0  0  0  0
 45 44  1  0  0  0  0
 46 44  1  0  0  0  0
 47 48  1  0  0  0  0
 47 49  1  0  0  0  0
 50 47  1  0  0  0  0
 51 47  1  1  0  0  0
 51 52  1  0  0  0  0
 52 54  2  0  0  0  0
 52 53  1  0  0  0  0
 54 55  1  0  0  0  0
 55 58  1  0  0  0  0
 55 57  1  0  0  0  0
 56 55  1  0  0  0  0
M  END
