2,3,4
 OpenBabel05122313063D

 32 35  0  0  0  0  0  0  0  0999 V2000
    3.8593   -2.6489    0.7551 F   0  0  0  0  0  0  0  0  0  0  0  0
    1.6135    1.4331   -0.6227 O   0  5  0  0  0  0  0  0  0  0  0  0
   -2.1728    0.3651   -0.0621 N   0  0  0  0  0  2  0  0  0  0  0  0
    0.1243   -0.9805   -0.0924 N   0  0  0  0  0  2  0  0  0  0  0  0
   -3.2846    1.1088   -0.0391 C   0  0  0  0  0  0  0  0  0  0  0  0
   -3.1228    2.1944   -0.1292 H   0  0  0  0  0  0  0  0  0  0  0  0
   -4.5601    0.5132    0.0746 C   0  0  0  0  0  0  0  0  0  0  0  0
   -5.4493    1.1589    0.0952 H   0  0  0  0  0  0  0  0  0  0  0  0
   -4.6777   -0.8730    0.1531 C   0  0  0  0  0  0  0  0  0  0  0  0
   -5.6656   -1.3507    0.2378 H   0  0  0  0  0  0  0  0  0  0  0  0
   -3.5096   -1.6802    0.1152 C   0  0  0  0  0  0  0  0  0  0  0  0
   -2.2627   -1.0014    0.0114 C   0  0  0  0  0  0  0  0  0  0  0  0
   -3.4987   -3.1164    0.1604 C   0  0  0  0  0  0  0  0  0  0  0  0
   -4.4576   -3.6499    0.2383 H   0  0  0  0  0  0  0  0  0  0  0  0
   -2.3099   -3.8143    0.0960 C   0  0  0  0  0  0  0  0  0  0  0  0
   -2.3114   -4.9147    0.1185 H   0  0  0  0  0  0  0  0  0  0  0  0
   -1.0470   -3.1388   -0.0026 C   0  0  0  0  0  0  0  0  0  0  0  0
   -1.0271   -1.7232   -0.0302 C   0  0  0  0  0  0  0  0  0  0  0  0
    0.2225   -3.7722   -0.1086 C   0  0  0  0  0  0  0  0  0  0  0  0
    0.2841   -4.8697   -0.1608 H   0  0  0  0  0  0  0  0  0  0  0  0
    1.3749   -3.0126   -0.1604 C   0  0  0  0  0  0  0  0  0  0  0  0
    2.3388   -3.5165   -0.2616 H   0  0  0  0  0  0  0  0  0  0  0  0
    1.3520   -1.5720   -0.0907 C   0  0  0  0  0  0  0  0  0  0  0  0
    2.5738   -0.7708   -0.0480 C   0  0  0  0  0  0  0  0  0  0  0  0
    3.8305   -1.3653    0.3110 C   0  0  0  0  0  0  0  0  0  0  0  0
    5.0495   -0.7123    0.2825 C   0  0  0  0  0  0  0  0  0  0  0  0
    5.9493   -1.2575    0.5961 H   0  0  0  0  0  0  0  0  0  0  0  0
    5.0783    0.6422   -0.1169 C   0  0  0  0  0  0  0  0  0  0  0  0
    6.0387    1.1785   -0.1549 H   0  0  0  0  0  0  0  0  0  0  0  0
    3.9044    1.3041   -0.4248 C   0  0  0  0  0  0  0  0  0  0  0  0
    3.8905    2.3673   -0.7002 H   0  0  0  0  0  0  0  0  0  0  0  0
    2.6256    0.6584   -0.3612 C   0  0  0  0  0  0  0  0  0  0  0  0
  2 32  1  0  0  0  0
  3  5  1  0  0  0  0
  3 12  1  0  0  0  0
  4 23  1  0  0  0  0
  4 18  1  0  0  0  0
  5  7  2  0  0  0  0
  6  5  1  0  0  0  0
  7  8  1  0  0  0  0
  7  9  1  0  0  0  0
  9 10  1  0  0  0  0
 11  9  2  0  0  0  0
 11 13  1  0  0  0  0
 12 11  1  0  0  0  0
 13 14  1  0  0  0  0
 15 16  1  0  0  0  0
 15 13  2  0  0  0  0
 17 15  1  0  0  0  0
 18 17  1  0  0  0  0
 18 12  2  0  0  0  0
 19 17  2  0  0  0  0
 20 19  1  0  0  0  0
 21 19  1  0  0  0  0
 21 23  2  0  0  0  0
 22 21  1  0  0  0  0
 23 24  1  0  0  0  0
 24 25  1  0  0  0  0
 25  1  1  0  0  0  0
 26 25  2  0  0  0  0
 26 27  1  0  0  0  0
 28 26  1  0  0  0  0
 29 28  1  0  0  0  0
 30 32  1  0  0  0  0
 30 28  2  0  0  0  0
 31 30  1  0  0  0  0
 32 24  2  0  0  0  0
M  CHG  1   2  -1
M  END
