2,5,6
 OpenBabel05122313063D

 32 33  0  0  0  0  0  0  0  0999 V2000
   -2.3694    2.2190    0.1849 S   0  0  0  0  0  0  0  0  0  0  0  0
   -1.2227    1.4857    0.9292 O   0  0  0  0  0  1  0  0  0  0  0  0
   -1.8533    2.9356   -1.0221 O   0  0  0  0  0  1  0  0  0  0  0  0
   -3.2401    2.9465    1.1273 O   0  0  0  0  0  1  0  0  0  0  0  0
    1.0999   -1.3802   -1.1198 N   0  0  0  0  0  2  0  0  0  0  0  0
   -1.3783    0.3000   -1.8783 N   0  0  0  0  0  0  0  0  0  0  0  0
    1.7813   -2.2717   -0.3752 C   0  0  0  0  0  3  0  0  0  0  0  0
    2.9062   -2.9556   -0.8442 C   0  0  0  0  0  0  0  0  0  0  0  0
    3.3308   -2.7005   -2.1545 C   0  0  0  0  0  0  0  0  0  0  0  0
    2.6009   -1.8015   -2.9413 C   0  0  0  0  0  0  0  0  0  0  0  0
    1.4807   -1.1426   -2.4009 C   0  0  0  0  0  0  0  0  0  0  0  0
    0.6726   -0.1753   -3.2277 C   0  0  0  0  0  0  0  0  0  0  0  0
   -0.8458   -0.3392   -3.0842 C   0  0  0  0  0  0  0  0  0  0  0  0
   -2.7295    0.0469   -1.5245 C   0  0  0  0  0  0  0  0  0  0  0  0
   -3.5115   -0.9777   -2.0964 C   0  0  0  0  0  0  0  0  0  0  0  0
   -4.8127   -1.2280   -1.6287 C   0  0  0  0  0  0  0  0  0  0  0  0
   -5.3662   -0.4579   -0.5967 C   0  0  0  0  0  0  0  0  0  0  0  0
   -4.6114    0.5900   -0.0437 C   0  0  0  0  0  0  0  0  0  0  0  0
   -3.3161    0.8383   -0.5019 C   0  0  0  0  0  0  0  0  0  0  0  0
    1.4020   -2.4282    0.6467 H   0  0  0  0  0  0  0  0  0  0  0  0
    3.4424   -3.6531   -0.1865 H   0  0  0  0  0  0  0  0  0  0  0  0
    4.2192   -3.2038   -2.5648 H   0  0  0  0  0  0  0  0  0  0  0  0
    2.8946   -1.5964   -3.9809 H   0  0  0  0  0  0  0  0  0  0  0  0
    0.9467   -0.3088   -4.2918 H   0  0  0  0  0  0  0  0  0  0  0  0
    0.9726    0.8538   -2.9297 H   0  0  0  0  0  0  0  0  0  0  0  0
   -1.3515    0.0636   -3.9911 H   0  0  0  0  0  0  0  0  0  0  0  0
   -1.0851   -1.4222   -3.0457 H   0  0  0  0  0  0  0  0  0  0  0  0
   -3.1124   -1.5903   -2.9159 H   0  0  0  0  0  0  0  0  0  0  0  0
   -5.4015   -2.0340   -2.0931 H   0  0  0  0  0  0  0  0  0  0  0  0
   -6.3871   -0.6549   -0.2378 H   0  0  0  0  0  0  0  0  0  0  0  0
   -5.0086    1.2457    0.7457 H   0  0  0  0  0  0  0  0  0  0  0  0
   -1.2283    1.3384   -1.8726 H   0  0  0  0  0  0  0  0  0  0  0  0
  1  2  1  0  0  0  0
  1  4  1  0  0  0  0
  3  1  1  0  0  0  0
  5  7  1  0  0  0  0
  6 32  1  0  0  0  0
  6 14  1  0  0  0  0
  7 20  1  0  0  0  0
  8  7  1  0  0  0  0
  8 21  1  0  0  0  0
  9  8  2  0  0  0  0
 10 11  2  0  0  0  0
 10  9  1  0  0  0  0
 11  5  1  0  0  0  0
 12 13  1  0  0  0  0
 12 25  1  0  0  0  0
 12 11  1  0  0  0  0
 13 27  1  0  0  0  0
 13  6  1  0  0  0  0
 14 19  1  0  0  0  0
 15 16  1  0  0  0  0
 15 14  2  0  0  0  0
 16 17  2  0  0  0  0
 17 30  1  0  0  0  0
 17 18  1  0  0  0  0
 18 31  1  0  0  0  0
 19 18  2  0  0  0  0
 19  1  1  0  0  0  0
 22  9  1  0  0  0  0
 23 10  1  0  0  0  0
 24 12  1  0  0  0  0
 26 13  1  0  0  0  0
 28 15  1  0  0  0  0
 29 16  1  0  0  0  0
M  END
