1,2,3
 OpenBabel05122313063D

 36 39  0  0  1  0  0  0  0  0999 V2000
    0.8940   -1.8335    0.4780 O   0  5  0  0  0  0  0  0  0  0  0  0
   -2.6446   -0.2251   -0.3334 N   0  0  0  0  0  2  0  0  0  0  0  0
   -0.2333    0.6594    0.1919 N   0  0  0  0  0  2  0  0  0  0  0  0
   -3.8376   -0.7288   -0.6850 C   0  0  0  0  0  0  0  0  0  0  0  0
   -4.9955    0.0724   -0.7810 C   0  0  0  0  0  0  0  0  0  0  0  0
   -4.9259    1.4270   -0.4922 C   0  0  0  0  0  0  0  0  0  0  0  0
   -3.6749    1.9917   -0.1186 C   0  0  0  0  0  0  0  0  0  0  0  0
   -3.4904    3.3637    0.2158 C   0  0  0  0  0  0  0  0  0  0  0  0
   -2.2338    3.8250    0.5873 C   0  0  0  0  0  0  0  0  0  0  0  0
   -1.1128    2.9618    0.6181 C   0  0  0  0  0  0  0  0  0  0  0  0
   -1.2448    1.6150    0.2636 C   0  0  0  0  0  0  0  0  0  0  0  0
   -2.5426    1.1188   -0.0672 C   0  0  2  0  0  3  0  0  0  0  0  0
    1.0429    1.0191    0.1263 C   0  0  0  0  0  3  0  0  0  0  0  0
    2.1773    0.1710    0.1168 C   0  0  0  0  0  0  0  0  0  0  0  0
    3.5160    0.7379   -0.0435 C   0  0  0  0  0  0  0  0  0  0  0  0
    3.7584    2.1068   -0.3369 C   0  0  0  0  0  0  0  0  0  0  0  0
    5.0519    2.6078   -0.4705 C   0  0  0  0  0  0  0  0  0  0  0  0
    6.1725    1.7607   -0.3250 C   0  0  0  0  0  0  0  0  0  0  0  0
    5.9708    0.4119   -0.0550 C   0  0  0  0  0  0  0  0  0  0  0  0
    4.6622   -0.1206    0.0853 C   0  0  0  0  0  0  0  0  0  0  0  0
    4.4675   -1.5184    0.3459 C   0  0  0  0  0  0  0  0  0  0  0  0
    3.2142   -2.0662    0.4652 C   0  0  0  0  0  0  0  0  0  0  0  0
    2.0456   -1.2461    0.3340 C   0  0  0  0  0  0  0  0  0  0  0  0
   -3.8638   -1.8096   -0.8823 H   0  0  0  0  0  0  0  0  0  0  0  0
   -5.9409   -0.4040   -1.0755 H   0  0  0  0  0  0  0  0  0  0  0  0
   -5.8179    2.0690   -0.5447 H   0  0  0  0  0  0  0  0  0  0  0  0
   -4.3572    4.0402    0.1912 H   0  0  0  0  0  0  0  0  0  0  0  0
   -2.1001    4.8796    0.8705 H   0  0  0  0  0  0  0  0  0  0  0  0
   -0.1395    3.3564    0.9413 H   0  0  0  0  0  0  0  0  0  0  0  0
    1.2425    2.1024    0.0697 H   0  0  0  0  0  0  0  0  0  0  0  0
    2.9184    2.7995   -0.4854 H   0  0  0  0  0  0  0  0  0  0  0  0
    5.1965    3.6742   -0.7009 H   0  0  0  0  0  0  0  0  0  0  0  0
    7.1905    2.1627   -0.4336 H   0  0  0  0  0  0  0  0  0  0  0  0
    6.8280   -0.2710    0.0510 H   0  0  0  0  0  0  0  0  0  0  0  0
    5.3576   -2.1604    0.4386 H   0  0  0  0  0  0  0  0  0  0  0  0
    3.0575   -3.1370    0.6540 H   0  0  0  0  0  0  0  0  0  0  0  0
  3 11  1  0  0  0  0
  4  2  1  0  0  0  0
  5  4  2  0  0  0  0
  5  6  1  0  0  0  0
  6  7  2  0  0  0  0
  7 12  1  0  0  0  0
  7  8  1  0  0  0  0
  8  9  2  0  0  0  0
  9 10  1  0  0  0  0
  9 28  1  0  0  0  0
 10 29  1  0  0  0  0
 11 10  2  0  0  0  0
 12  2  1  6  0  0  0
 12 11  1  0  0  0  0
 13  3  1  0  0  0  0
 14 13  1  0  0  0  0
 14 23  1  0  0  0  0
 15 20  1  0  0  0  0
 15 14  2  0  0  0  0
 16 15  1  0  0  0  0
 17 16  2  0  0  0  0
 17 18  1  0  0  0  0
 18 19  2  0  0  0  0
 19 34  1  0  0  0  0
 19 20  1  0  0  0  0
 20 21  2  0  0  0  0
 21 35  1  0  0  0  0
 21 22  1  0  0  0  0
 22 36  1  0  0  0  0
 23 22  2  0  0  0  0
 23  1  1  0  0  0  0
 24  4  1  0  0  0  0
 25  5  1  0  0  0  0
 26  6  1  0  0  0  0
 27  8  1  0  0  0  0
 30 13  1  0  0  0  0
 31 16  1  0  0  0  0
 32 17  1  0  0  0  0
 33 18  1  0  0  0  0
M  CHG  1   1  -1
M  END
