1,3,4
 OpenBabel05122313063D

 22 23  0  0  1  0  0  0  0  0999 V2000
    0.1964   -1.3528   -1.6369 O   0  5  0  0  0  0  0  0  0  0  0  0
   -1.0267   -2.7861   -2.8809 O   0  0  0  0  0  0  0  0  0  0  0  0
   -1.8040   -0.4045   -0.4219 N   0  0  0  0  0  2  0  0  0  0  0  0
   -0.6393    1.2840    1.0233 N   0  0  0  0  0  2  0  0  0  0  0  0
   -2.0063    1.3143    1.1431 C   0  0  2  0  0  3  0  0  0  0  0  0
    0.1126    2.1413    1.7351 C   0  0  0  0  0  0  0  0  0  0  0  0
    1.2011    2.0788    1.5881 H   0  0  0  0  0  0  0  0  0  0  0  0
   -2.1502   -1.3072   -1.3496 C   0  0  2  0  0  3  0  0  0  0  0  0
   -2.6905    0.3371    0.2803 C   0  0  0  0  0  0  0  0  0  0  0  0
   -4.0636    0.1155    0.0811 C   0  0  0  0  0  0  0  0  0  0  0  0
   -4.8132    0.6984    0.6339 H   0  0  0  0  0  0  0  0  0  0  0  0
   -0.9363   -1.9027   -2.0472 C   0  0  0  0  0  0  0  0  0  0  0  0
   -3.5021   -1.5747   -1.5932 C   0  0  0  0  0  0  0  0  0  0  0  0
   -3.7685   -2.3213   -2.3554 H   0  0  0  0  0  0  0  0  0  0  0  0
   -4.4610   -0.8543   -0.8583 C   0  0  0  0  0  0  0  0  0  0  0  0
   -5.5328   -1.0338   -1.0281 H   0  0  0  0  0  0  0  0  0  0  0  0
   -0.4540    3.0746    2.6117 C   0  0  0  0  0  0  0  0  0  0  0  0
    0.1976    3.7602    3.1712 H   0  0  0  0  0  0  0  0  0  0  0  0
   -2.6337    2.2240    2.0068 C   0  0  0  0  0  0  0  0  0  0  0  0
   -3.7294    2.2355    2.0884 H   0  0  0  0  0  0  0  0  0  0  0  0
   -1.8491    3.1156    2.7496 C   0  0  0  0  0  0  0  0  0  0  0  0
   -2.3241    3.8399    3.4272 H   0  0  0  0  0  0  0  0  0  0  0  0
  2 12  2  0  0  0  0
  3  9  1  0  0  0  0
  4  5  1  0  0  0  0
  4  6  1  0  0  0  0
  5  9  1  6  0  0  0
  5 19  1  0  0  0  0
  6 17  2  0  0  0  0
  7  6  1  0  0  0  0
  8 12  1  6  0  0  0
  8  3  1  0  0  0  0
 10  9  2  0  0  0  0
 10 11  1  0  0  0  0
 12  1  1  0  0  0  0
 13  8  1  0  0  0  0
 13 15  2  0  0  0  0
 14 13  1  0  0  0  0
 15 10  1  0  0  0  0
 16 15  1  0  0  0  0
 17 21  1  0  0  0  0
 17 18  1  0  0  0  0
 19 20  1  0  0  0  0
 19 21  2  0  0  0  0
 21 22  1  0  0  0  0
M  CHG  1   1  -1
M  END
