1,5,6
 OpenBabel05122313063D

 46 50  0  0  1  0  0  0  0  0999 V2000
    1.1705   -0.4275   -0.8210 O   0  5  0  0  0  0  0  0  0  0  0  0
    1.7198   -0.7076   -2.9932 O   0  0  0  0  0  0  0  0  0  0  0  0
    1.7812   -3.2559    0.2503 O   0  0  0  0  0  0  0  0  0  0  0  0
   -0.0827   -2.2877    1.1379 O   0  0  0  0  0  0  0  0  0  0  0  0
   -1.7247   -1.7205   -0.4832 N   0  0  0  0  0  2  0  0  0  0  0  0
   -2.9764    0.6181   -1.0822 N   0  0  0  0  0  2  0  0  0  0  0  0
    5.1196   -1.6544    0.2519 N   0  0  0  0  0  0  0  0  0  0  0  0
    3.7700    0.2591    1.8371 N   0  0  0  0  0  0  0  0  0  0  0  0
   -3.0240   -1.5926   -0.1363 C   0  0  0  0  0  0  0  0  0  0  0  0
   -0.9690   -2.8265   -0.0208 C   0  0  2  0  0  0  0  0  0  0  0  0
   -0.1983   -3.1408   -0.7526 H   0  0  0  0  0  0  0  0  0  0  0  0
   -1.7553   -3.9727    0.5082 C   0  0  0  0  0  0  0  0  0  0  0  0
   -1.2125   -4.9127    0.6870 H   0  0  0  0  0  0  0  0  0  0  0  0
   -3.0793   -3.8437    0.8006 C   0  0  0  0  0  0  0  0  0  0  0  0
   -3.6447   -4.6882    1.2273 H   0  0  0  0  0  0  0  0  0  0  0  0
   -3.7811   -2.6129    0.5172 C   0  0  0  0  0  0  0  0  0  0  0  0
   -5.1580   -2.4060    0.8033 C   0  0  0  0  0  0  0  0  0  0  0  0
   -5.7074   -3.2203    1.3033 H   0  0  0  0  0  0  0  0  0  0  0  0
   -5.8204   -1.2318    0.4713 C   0  0  0  0  0  0  0  0  0  0  0  0
   -6.8875   -1.0963    0.7008 H   0  0  0  0  0  0  0  0  0  0  0  0
   -5.1071   -0.1840   -0.1814 C   0  0  0  0  0  0  0  0  0  0  0  0
   -5.6884    1.0563   -0.5661 C   0  0  0  0  0  0  0  0  0  0  0  0
   -6.7562    1.2317   -0.3597 H   0  0  0  0  0  0  0  0  0  0  0  0
   -4.9186    2.0299   -1.1918 C   0  0  0  0  0  0  0  0  0  0  0  0
   -5.3536    2.9929   -1.4960 H   0  0  0  0  0  0  0  0  0  0  0  0
   -3.5480    1.7679   -1.4298 C   0  0  0  0  0  0  0  0  0  0  0  0
   -2.8949    2.5175   -1.9074 H   0  0  0  0  0  0  0  0  0  0  0  0
   -3.7101   -0.3582   -0.4807 C   0  0  1  0  0  3  0  0  0  0  0  0
    3.8732   -1.2303   -0.0304 C   0  0  0  0  0  0  0  0  0  0  0  0
    3.3719   -1.1869   -1.3583 C   0  0  0  0  0  0  0  0  0  0  0  0
    4.2319   -1.6053   -2.3908 C   0  0  0  0  0  0  0  0  0  0  0  0
    3.8455   -1.5636   -3.4194 H   0  0  0  0  0  0  0  0  0  0  0  0
    5.5197   -2.0564   -2.0932 C   0  0  0  0  0  0  0  0  0  0  0  0
    6.2067   -2.3953   -2.8832 H   0  0  0  0  0  0  0  0  0  0  0  0
    5.9107   -2.0652   -0.7458 C   0  0  0  0  0  0  0  0  0  0  0  0
    6.9173   -2.4192   -0.4563 H   0  0  0  0  0  0  0  0  0  0  0  0
    3.1559   -0.7617    1.2136 C   0  0  0  0  0  0  0  0  0  0  0  0
    1.9986   -1.3835    1.7506 C   0  0  0  0  0  0  0  0  0  0  0  0
    1.5330   -0.9482    3.0005 C   0  0  0  0  0  0  0  0  0  0  0  0
    0.6412   -1.4249    3.4326 H   0  0  0  0  0  0  0  0  0  0  0  0
    2.2028    0.0857    3.6654 C   0  0  0  0  0  0  0  0  0  0  0  0
    1.8714    0.4402    4.6530 H   0  0  0  0  0  0  0  0  0  0  0  0
    3.3003    0.6741    3.0213 C   0  0  0  0  0  0  0  0  0  0  0  0
    3.8353    1.5213    3.4891 H   0  0  0  0  0  0  0  0  0  0  0  0
    1.9852   -0.7372   -1.7532 C   0  0  0  0  0  0  0  0  0  0  0  0
    1.2494   -2.4232    0.9692 C   0  0  0  0  0  0  0  0  0  0  0  0
  2 45  2  0  0  0  0
  3 46  2  0  0  0  0
  5  9  1  0  0  0  0
  5 10  1  0  0  0  0
  8 43  1  0  0  0  0
  9 16  2  0  0  0  0
 10 11  1  6  0  0  0
 10 12  1  0  0  0  0
 10  4  1  0  0  0  0
 12 13  1  0  0  0  0
 12 14  2  0  0  0  0
 14 15  1  0  0  0  0
 16 14  1  0  0  0  0
 16 17  1  0  0  0  0
 17 18  1  0  0  0  0
 19 20  1  0  0  0  0
 19 17  2  0  0  0  0
 21 19  1  0  0  0  0
 22 23  1  0  0  0  0
 22 21  2  0  0  0  0
 24 22  1  0  0  0  0
 25 24  1  0  0  0  0
 26 24  2  0  0  0  0
 26  6  1  0  0  0  0
 27 26  1  0  0  0  0
 28  6  1  1  0  0  0
 28 21  1  0  0  0  0
 28  9  1  0  0  0  0
 29  7  1  0  0  0  0
 29 37  1  0  0  0  0
 30 29  2  0  0  0  0
 31 33  2  0  0  0  0
 31 30  1  0  0  0  0
 32 31  1  0  0  0  0
 33 35  1  0  0  0  0
 34 33  1  0  0  0  0
 35 36  1  0  0  0  0
 35  7  2  0  0  0  0
 37 38  1  0  0  0  0
 37  8  2  0  0  0  0
 38 39  2  0  0  0  0
 39 40  1  0  0  0  0
 39 41  1  0  0  0  0
 41 42  1  0  0  0  0
 43 44  1  0  0  0  0
 43 41  2  0  0  0  0
 45 30  1  0  0  0  0
 45  1  1  0  0  0  0
 46  4  1  0  0  0  0
 46 38  1  0  0  0  0
M  CHG  1   1  -1
M  END
