1,8,16
 OpenBabel05122313063D

 29 30  0  0  0  0  0  0  0  0999 V2000
   -1.2772    0.7336   -1.2834 N   0  0  0  0  0  2  0  0  0  0  0  0
   -1.7634    0.1371   -2.3913 C   0  0  0  0  0  3  0  0  0  0  0  0
   -2.7461    0.7254   -3.1905 C   0  0  0  0  0  0  0  0  0  0  0  0
   -3.2584    1.9764   -2.8213 C   0  0  0  0  0  0  0  0  0  0  0  0
   -2.7693    2.5874   -1.6605 C   0  0  0  0  0  0  0  0  0  0  0  0
   -1.7789    1.9412   -0.9115 C   0  0  0  0  0  0  0  0  0  0  0  0
   -1.1690    2.5072    0.3343 C   0  0  0  0  0  0  0  0  0  0  0  0
   -0.7157    1.3911    1.2020 N   0  0  0  0  0  0  0  0  0  0  0  0
   -1.7421    0.8713    2.1598 C   0  0  0  0  0  0  0  0  0  0  0  0
   -2.8781    0.1834    1.4565 C   0  0  0  0  0  0  0  0  0  0  0  0
   -4.2081    0.6121    1.5653 C   0  0  0  0  0  0  0  0  0  0  0  0
   -5.2223   -0.0787    0.8794 C   0  0  0  0  0  0  0  0  0  0  0  0
   -4.9145   -1.1855    0.0679 C   0  0  0  0  0  0  0  0  0  0  0  0
   -3.5807   -1.5901   -0.0520 C   0  0  0  0  0  0  0  0  0  0  0  0
   -2.5286   -0.9412    0.6525 C   0  0  0  0  0  0  0  0  0  0  0  0
   -1.2756   -1.3384    0.5350 O   0  5  0  0  0  0  0  0  0  0  0  0
   -6.8733    0.4504    1.0191 Cl  0  0  0  0  0  0  0  0  0  0  0  0
   -3.1512   -2.9028   -1.1221 Cl  0  0  0  0  0  0  0  0  0  0  0  0
   -1.3891   -0.8637   -2.6449 H   0  0  0  0  0  0  0  0  0  0  0  0
   -3.1103    0.1924   -4.0794 H   0  0  0  0  0  0  0  0  0  0  0  0
   -4.0408    2.4629   -3.4218 H   0  0  0  0  0  0  0  0  0  0  0  0
   -3.1589    3.5573   -1.3203 H   0  0  0  0  0  0  0  0  0  0  0  0
   -1.8719    3.1810    0.8659 H   0  0  0  0  0  0  0  0  0  0  0  0
   -0.2604    3.0796    0.0569 H   0  0  0  0  0  0  0  0  0  0  0  0
    0.0987    1.7455    1.7228 H   0  0  0  0  0  0  0  0  0  0  0  0
   -2.1143    1.7062    2.7898 H   0  0  0  0  0  0  0  0  0  0  0  0
   -1.2078    0.1499    2.8133 H   0  0  0  0  0  0  0  0  0  0  0  0
   -4.4701    1.4802    2.1878 H   0  0  0  0  0  0  0  0  0  0  0  0
   -5.7065   -1.7125   -0.4806 H   0  0  0  0  0  0  0  0  0  0  0  0
  1  6  1  0  0  0  0
  2  1  1  0  0  0  0
  3  4  2  0  0  0  0
  3  2  1  0  0  0  0
  4  5  1  0  0  0  0
  5 22  1  0  0  0  0
  5  6  2  0  0  0  0
  6  7  1  0  0  0  0
  7 23  1  0  0  0  0
  7  8  1  0  0  0  0
  8 25  1  0  0  0  0
  8  9  1  0  0  0  0
  9 26  1  0  0  0  0
  9 27  1  0  0  0  0
 10 11  1  0  0  0  0
 10  9  1  0  0  0  0
 11 28  1  0  0  0  0
 12 17  1  0  0  0  0
 12 11  2  0  0  0  0
 13 12  1  0  0  0  0
 14 13  2  0  0  0  0
 14 15  1  0  0  0  0
 15 10  2  0  0  0  0
 16 15  1  0  0  0  0
 18 14  1  0  0  0  0
 19  2  1  0  0  0  0
 20  3  1  0  0  0  0
 21  4  1  0  0  0  0
 24  7  1  0  0  0  0
 29 13  1  0  0  0  0
M  CHG  1  16  -1
M  END
