1,13,27
 OpenBabel05122313063D

 40 41  0  0  1  0  0  0  0  0999 V2000
    0.4188   -0.0650    1.9986 O   0  5  0  0  0  0  0  0  0  0  0  0
   -0.8290    0.1861    1.9220 C   0  0  0  0  0  0  0  0  0  0  0  0
   -1.4860    0.2450    0.4288 C   0  0  2  0  0  0  0  0  0  0  0  0
   -1.5812    0.4498    2.8575 O   0  0  0  0  0  0  0  0  0  0  0  0
   -2.9961    0.3753    0.6495 C   0  0  0  0  0  0  0  0  0  0  0  0
   -3.1007    1.2363    1.3376 H   0  0  0  0  0  0  0  0  0  0  0  0
   -3.5424    0.6082   -0.2783 H   0  0  0  0  0  0  0  0  0  0  0  0
   -3.6139   -0.8186    1.3371 C   0  0  0  0  0  0  0  0  0  0  0  0
   -2.9635   -1.3890    2.0171 H   0  0  0  0  0  0  0  0  0  0  0  0
   -4.9098   -1.1564    1.2209 C   0  0  0  0  0  0  0  0  0  0  0  0
   -5.6062   -0.5895    0.5788 H   0  0  0  0  0  0  0  0  0  0  0  0
   -5.3311   -2.0015    1.7858 H   0  0  0  0  0  0  0  0  0  0  0  0
    0.1389   -1.4018   -0.3480 N   0  0  0  0  0  2  0  0  0  0  0  0
    1.4429   -3.2838   -1.3714 C   0  0  0  0  0  0  0  0  0  0  0  0
    2.2119   -2.7414   -1.9567 H   0  0  0  0  0  0  0  0  0  0  0  0
    1.1890   -4.2088   -1.9216 H   0  0  0  0  0  0  0  0  0  0  0  0
    1.9003   -3.5687   -0.4053 H   0  0  0  0  0  0  0  0  0  0  0  0
   -1.1401   -0.9219   -0.4076 N   0  0  0  0  0  0  0  0  0  0  0  0
    0.2105   -2.4613   -1.1784 C   0  0  2  0  0  3  0  0  0  0  0  0
   -1.0341   -2.6252   -1.8211 C   0  0  0  0  0  0  0  0  0  0  0  0
   -1.2954   -3.3824   -2.5675 H   0  0  0  0  0  0  0  0  0  0  0  0
   -1.8738   -1.6173   -1.3517 C   0  0  0  0  0  0  0  0  0  0  0  0
   -3.2453   -1.3182   -1.8642 C   0  0  0  0  0  0  0  0  0  0  0  0
   -4.0338   -1.4832   -1.1058 H   0  0  0  0  0  0  0  0  0  0  0  0
   -3.4447   -1.9931   -2.7168 H   0  0  0  0  0  0  0  0  0  0  0  0
   -3.3287   -0.2782   -2.2395 H   0  0  0  0  0  0  0  0  0  0  0  0
    0.4866    1.3840   -0.3605 N   0  0  0  0  0  2  0  0  0  0  0  0
    2.2648    2.8695   -1.3337 C   0  0  0  0  0  0  0  0  0  0  0  0
    2.8950    2.9656   -0.4281 H   0  0  0  0  0  0  0  0  0  0  0  0
    2.2869    3.8370   -1.8684 H   0  0  0  0  0  0  0  0  0  0  0  0
    2.7337    2.1058   -1.9835 H   0  0  0  0  0  0  0  0  0  0  0  0
   -0.8746    1.4249   -0.2231 N   0  0  0  0  0  0  0  0  0  0  0  0
    0.8530    2.5201   -0.9913 C   0  0  2  0  0  3  0  0  0  0  0  0
   -0.2969    3.2948   -1.2513 C   0  0  0  0  0  0  0  0  0  0  0  0
   -0.3337    4.2728   -1.7421 H   0  0  0  0  0  0  0  0  0  0  0  0
   -1.3911    2.5840   -0.7595 C   0  0  0  0  0  0  0  0  0  0  0  0
   -2.8210    3.0195   -0.8127 C   0  0  0  0  0  0  0  0  0  0  0  0
   -3.2887    3.0860    0.1882 H   0  0  0  0  0  0  0  0  0  0  0  0
   -3.4517    2.3534   -1.4348 H   0  0  0  0  0  0  0  0  0  0  0  0
   -2.8555    4.0260   -1.2685 H   0  0  0  0  0  0  0  0  0  0  0  0
  2  1  1  0  0  0  0
  2  4  2  0  0  0  0
  3  5  1  0  0  0  0
  3  2  1  1  0  0  0
  5  8  1  0  0  0  0
  5  6  1  0  0  0  0
  7  5  1  0  0  0  0
  8  9  1  0  0  0  0
 10  8  2  0  0  0  0
 10 12  1  0  0  0  0
 11 10  1  0  0  0  0
 14 17  1  0  0  0  0
 15 14  1  0  0  0  0
 16 14  1  0  0  0  0
 18 13  1  0  0  0  0
 18  3  1  0  0  0  0
 19 14  1  6  0  0  0
 19 13  1  0  0  0  0
 20 22  2  0  0  0  0
 20 19  1  0  0  0  0
 21 20  1  0  0  0  0
 22 18  1  0  0  0  0
 23 22  1  0  0  0  0
 23 24  1  0  0  0  0
 25 23  1  0  0  0  0
 26 23  1  0  0  0  0
 27 32  1  0  0  0  0
 28 29  1  0  0  0  0
 30 28  1  0  0  0  0
 31 28  1  0  0  0  0
 32  3  1  0  0  0  0
 33 28  1  1  0  0  0
 33 27  1  0  0  0  0
 34 33  1  0  0  0  0
 34 36  2  0  0  0  0
 35 34  1  0  0  0  0
 36 32  1  0  0  0  0
 37 36  1  0  0  0  0
 37 38  1  0  0  0  0
 39 37  1  0  0  0  0
 40 37  1  0  0  0  0
M  CHG  1   1  -1
M  END
