1,3,4
 OpenBabel05122313063D

 33 34  0  0  1  0  0  0  0  0999 V2000
   -0.4307   -0.6931    1.5257 O   0  5  0  0  0  0  0  0  0  0  0  0
    3.5745   -1.8475    0.3400 O   0  0  0  0  0  0  0  0  0  0  0  0
    1.9536   -0.2367    0.0675 N   0  0  0  0  0  2  0  0  0  0  0  0
    0.5363    0.9592   -1.8264 N   0  0  0  0  0  0  0  0  0  0  0  0
    0.4876    0.3568   -2.6630 H   0  0  0  0  0  0  0  0  0  0  0  0
   -0.1683    1.7030   -1.9392 H   0  0  0  0  0  0  0  0  0  0  0  0
    0.3382   -1.5419    2.1714 C   0  0  0  0  0  0  0  0  0  0  0  0
   -0.2236   -2.1521    3.3408 C   0  0  0  0  0  0  0  0  0  0  0  0
   -1.2313   -1.8177    3.6310 H   0  0  0  0  0  0  0  0  0  0  0  0
    0.4572   -3.1316    4.0600 C   0  0  0  0  0  0  0  0  0  0  0  0
   -0.0200   -3.5784    4.9486 H   0  0  0  0  0  0  0  0  0  0  0  0
    1.7416   -3.5547    3.6553 C   0  0  0  0  0  0  0  0  0  0  0  0
    2.2825   -4.3318    4.2177 H   0  0  0  0  0  0  0  0  0  0  0  0
    2.3182   -2.9531    2.5339 C   0  0  0  0  0  0  0  0  0  0  0  0
    3.3257   -3.2231    2.1798 H   0  0  0  0  0  0  0  0  0  0  0  0
    1.6666   -1.9455    1.7886 C   0  0  0  0  0  0  0  0  0  0  0  0
    2.4665   -1.3439    0.6633 C   0  0  0  0  0  0  0  0  0  0  0  0
    2.7327    0.3415   -1.0154 C   0  0  2  0  0  0  0  0  0  0  0  0
    2.9222   -0.4333   -1.8133 H   0  0  0  0  0  0  0  0  0  0  0  0
    4.1157    0.8950   -0.6230 C   0  0  0  0  0  0  0  0  0  0  0  0
    4.7038    0.0626   -0.1940 H   0  0  0  0  0  0  0  0  0  0  0  0
    3.9677    1.6545    0.1757 H   0  0  0  0  0  0  0  0  0  0  0  0
    4.8176    1.5190   -1.8362 C   0  0  0  0  0  0  0  0  0  0  0  0
    5.8031    1.9381   -1.5402 H   0  0  0  0  0  0  0  0  0  0  0  0
    5.0338    0.7193   -2.5811 H   0  0  0  0  0  0  0  0  0  0  0  0
    3.9645    2.6070   -2.5055 C   0  0  0  0  0  0  0  0  0  0  0  0
    4.4690    3.0050   -3.4123 H   0  0  0  0  0  0  0  0  0  0  0  0
    3.8539    3.4640   -1.8043 H   0  0  0  0  0  0  0  0  0  0  0  0
    2.5633    2.0847   -2.8604 C   0  0  0  0  0  0  0  0  0  0  0  0
    1.9310    2.9018   -3.2722 H   0  0  0  0  0  0  0  0  0  0  0  0
    2.6452    1.3063   -3.6551 H   0  0  0  0  0  0  0  0  0  0  0  0
    1.9031    1.4779   -1.6227 C   0  0  1  0  0  0  0  0  0  0  0  0
    1.7893    2.2488   -0.8330 H   0  0  0  0  0  0  0  0  0  0  0  0
  1  7  1  0  0  0  0
  2 17  2  0  0  0  0
  3 17  1  0  0  0  0
  4 32  1  0  0  0  0
  5  4  1  0  0  0  0
  6  4  1  0  0  0  0
  7  8  1  0  0  0  0
  8  9  1  0  0  0  0
  8 10  2  0  0  0  0
 10 11  1  0  0  0  0
 12 10  1  0  0  0  0
 12 13  1  0  0  0  0
 14 12  2  0  0  0  0
 15 14  1  0  0  0  0
 16  7  2  0  0  0  0
 16 14  1  0  0  0  0
 17 16  1  0  0  0  0
 18 19  1  6  0  0  0
 18 20  1  0  0  0  0
 18  3  1  0  0  0  0
 20 21  1  0  0  0  0
 20 22  1  0  0  0  0
 23 24  1  0  0  0  0
 23 20  1  0  0  0  0
 25 23  1  0  0  0  0
 26 23  1  0  0  0  0
 26 28  1  0  0  0  0
 27 26  1  0  0  0  0
 29 26  1  0  0  0  0
 29 32  1  0  0  0  0
 30 29  1  0  0  0  0
 31 29  1  0  0  0  0
 32 18  1  0  0  0  0
 32 33  1  1  0  0  0
M  CHG  1   1  -1
M  END
