2,3,4
 OpenBabel05122313063D

 23 23  0  0  0  0  0  0  0  0999 V2000
    3.7661   -1.9456   -0.3398 S   0  0  0  0  0  0  0  0  0  0  0  0
   -1.7221    0.6558    0.7160 O   0  5  0  0  0  0  0  0  0  0  0  0
    1.8977   -0.5936    1.0247 N   0  0  0  0  0  2  0  0  0  0  0  0
   -0.0261   -1.1791   -0.4789 N   0  0  0  0  0  2  0  0  0  0  0  0
    1.1579   -1.7123   -0.8981 N   0  0  0  0  0  0  0  0  0  0  0  0
   -2.6987    0.0486    0.0417 C   0  0  0  0  0  0  0  0  0  0  0  0
   -4.0252    0.5029    0.2129 C   0  0  0  0  0  0  0  0  0  0  0  0
   -5.0748   -0.0731   -0.5089 C   0  0  0  0  0  0  0  0  0  0  0  0
   -4.8289   -1.1147   -1.4262 C   0  0  0  0  0  0  0  0  0  0  0  0
   -3.5233   -1.5689   -1.6083 C   0  0  0  0  0  0  0  0  0  0  0  0
   -2.4347   -1.0143   -0.8846 C   0  0  0  0  0  0  0  0  0  0  0  0
   -1.1066   -1.5178   -1.1421 C   0  0  0  0  0  3  0  0  0  0  0  0
    2.1210   -1.3763   -0.0533 C   0  0  0  0  0  0  0  0  0  0  0  0
    3.5356   -2.9317   -1.8484 C   0  0  0  0  0  0  0  0  0  0  0  0
    2.7054   -0.3572    1.6067 H   0  0  0  0  0  0  0  0  0  0  0  0
   -4.1971    1.3198    0.9281 H   0  0  0  0  0  0  0  0  0  0  0  0
   -6.1010    0.2950   -0.3565 H   0  0  0  0  0  0  0  0  0  0  0  0
   -5.6568   -1.5656   -1.9919 H   0  0  0  0  0  0  0  0  0  0  0  0
   -3.3146   -2.3825   -2.3209 H   0  0  0  0  0  0  0  0  0  0  0  0
   -0.9753   -2.2504   -1.9616 H   0  0  0  0  0  0  0  0  0  0  0  0
    4.5348   -3.3373   -2.0959 H   0  0  0  0  0  0  0  0  0  0  0  0
    3.1613   -2.2963   -2.6714 H   0  0  0  0  0  0  0  0  0  0  0  0
    2.8198   -3.7535   -1.6639 H   0  0  0  0  0  0  0  0  0  0  0  0
  1 13  1  0  0  0  0
  3 15  1  0  0  0  0
  5  4  1  0  0  0  0
  5 13  2  0  0  0  0
  6  7  1  0  0  0  0
  6  2  1  0  0  0  0
  7 16  1  0  0  0  0
  8 17  1  0  0  0  0
  8  7  2  0  0  0  0
  9  8  1  0  0  0  0
 10  9  2  0  0  0  0
 10 11  1  0  0  0  0
 11  6  2  0  0  0  0
 12 11  1  0  0  0  0
 12  4  1  0  0  0  0
 13  3  1  0  0  0  0
 14 23  1  0  0  0  0
 14  1  1  0  0  0  0
 18  9  1  0  0  0  0
 19 10  1  0  0  0  0
 20 12  1  0  0  0  0
 21 14  1  0  0  0  0
 22 14  1  0  0  0  0
M  CHG  1   2  -1
M  END
