3,5,6
 OpenBabel05122313063D

 48 49  0  0  0  0  0  0  0  0999 V2000
   -3.6039    4.3250    0.5200 Cl  0  0  0  0  0  0  0  0  0  0  0  0
   -4.7725   -0.9655   -0.0547 Cl  0  0  0  0  0  0  0  0  0  0  0  0
   -1.9879   -1.1740   -0.9706 O   0  5  0  0  0  0  0  0  0  0  0  0
    3.8920   -0.0938    1.3061 O   0  0  0  0  0  0  0  0  0  0  0  0
    0.7659   -0.0713   -0.3116 N   0  0  0  0  0  0  0  0  0  0  0  0
   -0.3045   -1.9501    1.6667 N   0  0  0  0  0  0  0  0  0  0  0  0
    3.9978    0.8968    0.3679 C   0  0  0  0  0  0  0  0  0  0  0  0
    4.9119    1.9639    0.4640 C   0  0  0  0  0  0  0  0  0  0  0  0
    5.5900    2.0456    1.3236 H   0  0  0  0  0  0  0  0  0  0  0  0
    4.9630    2.9336   -0.5501 C   0  0  0  0  0  0  0  0  0  0  0  0
    5.6802    3.7638   -0.4632 H   0  0  0  0  0  0  0  0  0  0  0  0
    4.1205    2.8422   -1.6652 C   0  0  0  0  0  0  0  0  0  0  0  0
    4.1706    3.5933   -2.4666 H   0  0  0  0  0  0  0  0  0  0  0  0
    3.2159    1.7723   -1.7539 C   0  0  0  0  0  0  0  0  0  0  0  0
    2.5680    1.6782   -2.6394 H   0  0  0  0  0  0  0  0  0  0  0  0
    3.1226    0.7950   -0.7475 C   0  0  0  0  0  0  0  0  0  0  0  0
    2.1305   -0.3434   -0.8452 C   0  0  0  0  0  0  0  0  0  0  0  0
    1.9988   -0.6349   -1.9064 H   0  0  0  0  0  0  0  0  0  0  0  0
    2.5276   -1.2326   -0.3201 H   0  0  0  0  0  0  0  0  0  0  0  0
    0.7355    0.2480    1.1289 C   0  0  0  0  0  0  0  0  0  0  0  0
   -0.2107    0.7903    1.3218 H   0  0  0  0  0  0  0  0  0  0  0  0
    1.5604    0.9339    1.4197 H   0  0  0  0  0  0  0  0  0  0  0  0
    0.7987   -1.0192    1.9801 C   0  0  0  0  0  0  0  0  0  0  0  0
    1.7549   -1.5463    1.7869 H   0  0  0  0  0  0  0  0  0  0  0  0
    0.7978   -0.7433    3.0629 H   0  0  0  0  0  0  0  0  0  0  0  0
    0.0175    0.9094   -1.1504 C   0  0  0  0  0  0  0  0  0  0  0  0
    0.0138    0.4852   -2.1793 H   0  0  0  0  0  0  0  0  0  0  0  0
    0.5595    1.8808   -1.1906 H   0  0  0  0  0  0  0  0  0  0  0  0
   -1.3956    1.1508   -0.6867 C   0  0  0  0  0  0  0  0  0  0  0  0
   -1.8003    2.4499   -0.3292 C   0  0  0  0  0  0  0  0  0  0  0  0
   -1.0790    3.2799   -0.3735 H   0  0  0  0  0  0  0  0  0  0  0  0
   -3.1153    2.7000    0.0829 C   0  0  0  0  0  0  0  0  0  0  0  0
   -4.0452    1.6495    0.1558 C   0  0  0  0  0  0  0  0  0  0  0  0
   -5.0739    1.8320    0.4936 H   0  0  0  0  0  0  0  0  0  0  0  0
   -3.6407    0.3579   -0.1935 C   0  0  0  0  0  0  0  0  0  0  0  0
   -2.3140    0.0463   -0.6437 C   0  0  0  0  0  0  0  0  0  0  0  0
   -0.0157   -3.3092    2.1405 C   0  0  0  0  0  0  0  0  0  0  0  0
    0.0895   -3.3474    3.2511 H   0  0  0  0  0  0  0  0  0  0  0  0
    0.9172   -3.6803    1.6742 H   0  0  0  0  0  0  0  0  0  0  0  0
   -0.8405   -3.9857    1.8441 H   0  0  0  0  0  0  0  0  0  0  0  0
   -1.5994   -1.4847    2.1875 C   0  0  0  0  0  0  0  0  0  0  0  0
   -2.4199   -2.0880    1.7552 H   0  0  0  0  0  0  0  0  0  0  0  0
   -1.7830   -0.4377    1.8873 H   0  0  0  0  0  0  0  0  0  0  0  0
   -1.6329   -1.5498    3.3007 H   0  0  0  0  0  0  0  0  0  0  0  0
    4.7582   -0.0680    2.4260 C   0  0  0  0  0  0  0  0  0  0  0  0
    5.8269   -0.1267    2.1229 H   0  0  0  0  0  0  0  0  0  0  0  0
    4.5073   -0.9564    3.0348 H   0  0  0  0  0  0  0  0  0  0  0  0
    4.6104    0.8466    3.0426 H   0  0  0  0  0  0  0  0  0  0  0  0
  3 36  1  0  0  0  0
  4 45  1  0  0  0  0
  5 20  1  0  0  0  0
  6 23  1  0  0  0  0
  6 37  1  0  0  0  0
  6 41  1  0  0  0  0
  7  8  1  0  0  0  0
  7  4  1  0  0  0  0
  8  9  1  0  0  0  0
 10 11  1  0  0  0  0
 10  8  2  0  0  0  0
 12 10  1  0  0  0  0
 13 12  1  0  0  0  0
 14 12  2  0  0  0  0
 14 16  1  0  0  0  0
 15 14  1  0  0  0  0
 16  7  2  0  0  0  0
 17 16  1  0  0  0  0
 17 19  1  0  0  0  0
 17  5  1  0  0  0  0
 18 17  1  0  0  0  0
 20 21  1  0  0  0  0
 20 22  1  0  0  0  0
 20 23  1  0  0  0  0
 23 25  1  0  0  0  0
 24 23  1  0  0  0  0
 26 29  1  0  0  0  0
 26  5  1  0  0  0  0
 27 26  1  0  0  0  0
 28 26  1  0  0  0  0
 29 36  2  0  0  0  0
 29 30  1  0  0  0  0
 30 32  2  0  0  0  0
 31 30  1  0  0  0  0
 32 33  1  0  0  0  0
 32  1  1  0  0  0  0
 33 34  1  0  0  0  0
 35  2  1  0  0  0  0
 35 33  2  0  0  0  0
 36 35  1  0  0  0  0
 37 38  1  0  0  0  0
 39 37  1  0  0  0  0
 40 37  1  0  0  0  0
 41 44  1  0  0  0  0
 42 41  1  0  0  0  0
 43 41  1  0  0  0  0
 45 47  1  0  0  0  0
 45 48  1  0  0  0  0
 46 45  1  0  0  0  0
M  CHG  1   3  -1
M  END
