2,3,4
q = -1.0, confidence = 0.0

 27 28  0  0  1  0  0  0  0  0999 V2000
    6.6197    0.6719   -0.4224 Cl  0  0  0  0  0  0  0  0  0  0  0  0
    1.0815   -0.8074    1.0447 O   0  5  0  0  0  0  0  0  0  0  0  0
    0.2572    1.2108   -0.8275 N   0  0  0  0  0  2  0  0  0  0  0  0
   -1.9803    1.4035    0.5687 N   0  0  0  0  0  2  0  0  0  0  0  0
    2.5577    0.6133   -0.2918 C   0  0  0  0  0  0  0  0  0  0  0  0
    2.2666   -0.4421    0.6692 C   0  0  0  0  0  0  0  0  0  0  0  0
    3.4036   -1.0975    1.2513 C   0  0  0  0  0  0  0  0  0  0  0  0
    3.1924   -1.8946    1.9792 H   0  0  0  0  0  0  0  0  0  0  0  0
    4.7093   -0.7685    0.9193 C   0  0  0  0  0  0  0  0  0  0  0  0
    5.5556   -1.3001    1.3788 H   0  0  0  0  0  0  0  0  0  0  0  0
    4.9671    0.2620   -0.0186 C   0  0  0  0  0  0  0  0  0  0  0  0
    3.9087    0.9410   -0.6035 C   0  0  0  0  0  0  0  0  0  0  0  0
    4.1119    1.7472   -1.3250 H   0  0  0  0  0  0  0  0  0  0  0  0
    1.5393    1.4141   -0.9180 C   0  0  0  0  0  3  0  0  0  0  0  0
    1.9032    2.2852   -1.5117 H   0  0  0  0  0  0  0  0  0  0  0  0
   -0.7067    2.1240   -1.3828 C   0  0  0  0  0  0  0  0  0  0  0  0
   -1.1733    1.6607   -2.2864 H   0  0  0  0  0  0  0  0  0  0  0  0
   -0.2646    3.0957   -1.7019 H   0  0  0  0  0  0  0  0  0  0  0  0
   -1.8231    2.3565   -0.3737 C   0  0  1  0  0  3  0  0  0  0  0  0
   -2.6720    3.4733   -0.4298 C   0  0  0  0  0  0  0  0  0  0  0  0
   -2.5214    4.2385   -1.2060 H   0  0  0  0  0  0  0  0  0  0  0  0
   -3.6997    3.5923    0.5145 C   0  0  0  0  0  0  0  0  0  0  0  0
   -4.3751    4.4608    0.4928 H   0  0  0  0  0  0  0  0  0  0  0  0
   -3.8527    2.5935    1.4887 C   0  0  0  0  0  0  0  0  0  0  0  0
   -4.6452    2.6509    2.2483 H   0  0  0  0  0  0  0  0  0  0  0  0
   -2.9676    1.5101    1.4774 C   0  0  0  0  0  0  0  0  0  0  0  0
   -3.0266    0.6841    2.2042 H   0  0  0  0  0  0  0  0  0  0  0  0
  1 11  1  0  0  0  0
  4 26  1  0  0  0  0
  5  6  1  0  0  0  0
  6  2  1  0  0  0  0
  6  7  2  0  0  0  0
  7  8  1  0  0  0  0
  9  7  1  0  0  0  0
  9 10  1  0  0  0  0
 11  9  2  0  0  0  0
 12  5  2  0  0  0  0
 12 11  1  0  0  0  0
 13 12  1  0  0  0  0
 14  3  1  0  0  0  0
 14  5  1  0  0  0  0
 15 14  1  0  0  0  0
 16  3  1  0  0  0  0
 17 16  1  0  0  0  0
 18 16  1  0  0  0  0
 19 16  1  6  0  0  0
 19  4  1  0  0  0  0
 20 19  1  0  0  0  0
 20 22  2  0  0  0  0
 21 20  1  0  0  0  0
 22 24  1  0  0  0  0
 23 22  1  0  0  0  0
 24 25  1  0  0  0  0
 26 24  2  0  0  0  0
 26 27  1  0  0  0  0
M  CHG  1   2  -1
M  END
