2,3,6
 OpenBabel05122313063D

 34 36  0  0  1  0  0  0  0  0999 V2000
   -5.7192   -1.7820   -2.1437 Cl  0  0  0  0  0  0  0  0  0  0  0  0
    0.6501   -1.1659   -2.0302 N   0  0  0  0  0  2  0  0  0  0  0  0
    2.1492    1.1850   -0.7924 N   0  0  0  0  0  2  0  0  0  0  0  0
    3.5864    1.8865   -2.3429 N   0  0  0  0  0  0  0  0  0  0  0  0
    4.2295    1.8437   -3.1323 H   0  0  0  0  0  0  0  0  0  0  0  0
   -0.4890   -1.2555    0.5644 O   0  5  0  0  0  0  0  0  0  0  0  0
    1.6822   -1.0120   -3.0260 C   0  0  0  0  0  0  0  0  0  0  0  0
    1.4044   -0.2999   -3.8440 H   0  0  0  0  0  0  0  0  0  0  0  0
    1.8744   -1.9957   -3.5141 H   0  0  0  0  0  0  0  0  0  0  0  0
    3.0141   -0.5665   -2.3794 C   0  0  0  0  0  0  0  0  0  0  0  0
    3.2684   -1.2895   -1.5789 H   0  0  0  0  0  0  0  0  0  0  0  0
    3.8255   -0.6025   -3.1339 H   0  0  0  0  0  0  0  0  0  0  0  0
    2.9342    0.8040   -1.8037 C   0  0  2  0  0  3  0  0  0  0  0  0
    3.1996    3.0273   -1.6554 C   0  0  0  0  0  0  0  0  0  0  0  0
    2.2700    2.5722   -0.6772 C   0  0  0  0  0  0  0  0  0  0  0  0
    1.6447    3.4910    0.1853 C   0  0  0  0  0  0  0  0  0  0  0  0
    0.9131    3.1239    0.9155 H   0  0  0  0  0  0  0  0  0  0  0  0
    1.9930    4.8398    0.0523 C   0  0  0  0  0  0  0  0  0  0  0  0
    1.5154    5.5829    0.7082 H   0  0  0  0  0  0  0  0  0  0  0  0
    2.9311    5.2787   -0.9133 C   0  0  0  0  0  0  0  0  0  0  0  0
    3.1710    6.3501   -0.9857 H   0  0  0  0  0  0  0  0  0  0  0  0
    3.5514    4.3791   -1.7893 C   0  0  0  0  0  0  0  0  0  0  0  0
    4.2700    4.7185   -2.5495 H   0  0  0  0  0  0  0  0  0  0  0  0
   -0.5925   -1.1388   -2.4208 C   0  0  0  0  0  3  0  0  0  0  0  0
   -0.8456   -0.9381   -3.4912 H   0  0  0  0  0  0  0  0  0  0  0  0
   -1.7235   -1.3645   -1.5482 C   0  0  0  0  0  0  0  0  0  0  0  0
   -1.6040   -1.4262   -0.1067 C   0  0  0  0  0  0  0  0  0  0  0  0
   -2.7987   -1.6683    0.6354 C   0  0  0  0  0  0  0  0  0  0  0  0
   -2.7047   -1.7062    1.7298 H   0  0  0  0  0  0  0  0  0  0  0  0
   -4.0425   -1.7969    0.0257 C   0  0  0  0  0  0  0  0  0  0  0  0
   -4.9498   -1.9451    0.6286 H   0  0  0  0  0  0  0  0  0  0  0  0
   -4.1451   -1.6846   -1.3775 C   0  0  0  0  0  0  0  0  0  0  0  0
   -3.0053   -1.4737   -2.1467 C   0  0  0  0  0  0  0  0  0  0  0  0
   -3.0948   -1.3875   -3.2404 H   0  0  0  0  0  0  0  0  0  0  0  0
  1 32  1  0  0  0  0
  3 15  1  0  0  0  0
  4 13  1  0  0  0  0
  4 14  1  0  0  0  0
  5  4  1  0  0  0  0
  7 10  1  0  0  0  0
  7  2  1  0  0  0  0
  8  7  1  0  0  0  0
  9  7  1  0  0  0  0
 10 11  1  0  0  0  0
 12 10  1  0  0  0  0
 13 10  1  6  0  0  0
 13  3  1  0  0  0  0
 14 15  1  0  0  0  0
 15 16  2  0  0  0  0
 16 17  1  0  0  0  0
 18 16  1  0  0  0  0
 18 19  1  0  0  0  0
 20 18  2  0  0  0  0
 21 20  1  0  0  0  0
 22 14  2  0  0  0  0
 22 20  1  0  0  0  0
 23 22  1  0  0  0  0
 24  2  1  0  0  0  0
 24 26  1  0  0  0  0
 25 24  1  0  0  0  0
 26 27  1  0  0  0  0
 27  6  1  0  0  0  0
 27 28  2  0  0  0  0
 28 29  1  0  0  0  0
 30 31  1  0  0  0  0
 30 28  1  0  0  0  0
 32 30  2  0  0  0  0
 33 26  2  0  0  0  0
 33 32  1  0  0  0  0
 34 33  1  0  0  0  0
M  CHG  1   6  -1
M  END
