1,3,5
 OpenBabel05122313063D

 40 42  0  0  1  0  0  0  0  0999 V2000
    0.0025    1.2250    0.5312 N   0  0  0  0  0  2  0  0  0  0  0  0
    1.9791   -0.1358    0.4467 N   0  0  0  0  0  0  0  0  0  0  0  0
    0.3968   -0.9495   -1.1126 N   0  0  0  0  0  2  0  0  0  0  0  0
   -2.1864    2.1318   -1.6480 S   0  0  0  0  0  0  0  0  0  0  0  0
   -1.7471    0.6125   -1.6785 O   0  0  0  0  0  1  0  0  0  0  0  0
   -2.2709    2.6342   -3.0202 O   0  0  0  0  0  1  0  0  0  0  0  0
   -3.3554    2.3055   -0.7391 O   0  0  0  0  0  1  0  0  0  0  0  0
   -0.8928    2.8959   -0.9576 O   0  0  0  0  0  0  0  0  0  0  0  0
   -0.6510    2.5023    0.4944 C   0  0  2  0  0  0  0  0  0  0  0  0
   -1.6791    2.4053    0.8959 H   0  0  0  0  0  0  0  0  0  0  0  0
    0.1049    3.5877    1.1602 C   0  0  0  0  0  0  0  0  0  0  0  0
   -0.4413    4.5063    1.4159 H   0  0  0  0  0  0  0  0  0  0  0  0
    1.4439    3.4420    1.3964 C   0  0  0  0  0  0  0  0  0  0  0  0
    2.0190    4.2697    1.8415 H   0  0  0  0  0  0  0  0  0  0  0  0
    2.1190    2.2176    1.1016 C   0  0  0  0  0  0  0  0  0  0  0  0
    3.2069    2.1442    1.1959 H   0  0  0  0  0  0  0  0  0  0  0  0
    1.3489    1.1376    0.6729 C   0  0  0  0  0  0  0  0  0  0  0  0
    0.0926   -1.5948   -2.2633 C   0  0  0  0  0  3  0  0  0  0  0  0
   -0.9301   -1.4244   -2.6299 H   0  0  0  0  0  0  0  0  0  0  0  0
    1.0023   -2.4250   -2.9128 C   0  0  0  0  0  0  0  0  0  0  0  0
    0.7146   -2.9427   -3.8374 H   0  0  0  0  0  0  0  0  0  0  0  0
    2.2758   -2.5790   -2.3345 C   0  0  0  0  0  0  0  0  0  0  0  0
    3.0214   -3.2471   -2.7912 H   0  0  0  0  0  0  0  0  0  0  0  0
    2.6197   -1.8444   -1.2012 C   0  0  0  0  0  0  0  0  0  0  0  0
    3.6382   -1.8987   -0.8006 H   0  0  0  0  0  0  0  0  0  0  0  0
    1.6665   -0.9627   -0.6202 C   0  0  0  0  0  0  0  0  0  0  0  0
    3.1918   -0.4346    1.2071 C   0  0  0  0  0  0  0  0  0  0  0  0
    3.1907   -1.5217    1.4410 H   0  0  0  0  0  0  0  0  0  0  0  0
    3.0901    0.0946    2.1759 H   0  0  0  0  0  0  0  0  0  0  0  0
    4.5242   -0.0668    0.5672 C   0  0  0  0  0  0  0  0  0  0  0  0
    5.7111   -0.5570    1.1469 C   0  0  0  0  0  0  0  0  0  0  0  0
    5.6552   -1.1991    2.0413 H   0  0  0  0  0  0  0  0  0  0  0  0
    6.9611   -0.2367    0.5983 C   0  0  0  0  0  0  0  0  0  0  0  0
    7.8791   -0.6254    1.0649 H   0  0  0  0  0  0  0  0  0  0  0  0
    7.0404    0.5746   -0.5453 C   0  0  0  0  0  0  0  0  0  0  0  0
    8.0201    0.8256   -0.9788 H   0  0  0  0  0  0  0  0  0  0  0  0
    5.8624    1.0609   -1.1323 C   0  0  0  0  0  0  0  0  0  0  0  0
    5.9130    1.6962   -2.0294 H   0  0  0  0  0  0  0  0  0  0  0  0
    4.6118    0.7440   -0.5797 C   0  0  0  0  0  0  0  0  0  0  0  0
    3.6923    1.1337   -1.0410 H   0  0  0  0  0  0  0  0  0  0  0  0
  1 17  1  0  0  0  0
  2 17  1  0  0  0  0
  2 27  1  0  0  0  0
  3 26  1  0  0  0  0
  4  8  1  0  0  0  0
  4  7  1  0  0  0  0
  5  4  1  0  0  0  0
  6  4  1  0  0  0  0
  8  9  1  0  0  0  0
  9  1  1  0  0  0  0
  9 10  1  1  0  0  0
  9 11  1  0  0  0  0
 11 13  2  0  0  0  0
 11 12  1  0  0  0  0
 13 14  1  0  0  0  0
 15 16  1  0  0  0  0
 15 13  1  0  0  0  0
 17 15  2  0  0  0  0
 18  3  1  0  0  0  0
 19 18  1  0  0  0  0
 20 22  2  0  0  0  0
 20 18  1  0  0  0  0
 21 20  1  0  0  0  0
 22 24  1  0  0  0  0
 23 22  1  0  0  0  0
 24 25  1  0  0  0  0
 24 26  2  0  0  0  0
 26  2  1  0  0  0  0
 27 28  1  0  0  0  0
 27 29  1  0  0  0  0
 30 31  1  0  0  0  0
 30 27  1  0  0  0  0
 31 32  1  0  0  0  0
 33 34  1  0  0  0  0
 33 31  2  0  0  0  0
 35 33  1  0  0  0  0
 36 35  1  0  0  0  0
 37 39  1  0  0  0  0
 37 35  2  0  0  0  0
 38 37  1  0  0  0  0
 39 30  2  0  0  0  0
 40 39  1  0  0  0  0
M  END
