1,4,5
 OpenBabel05122313063D

 40 42  0  0  1  0  0  0  0  0999 V2000
   -1.8557   -0.4617   -0.1094 O   0  0  0  0  0  1  0  0  0  0  0  0
   -4.0644    0.3183   -0.0474 N   0  0  0  0  0  0  0  0  0  0  0  0
   -4.6738    1.5578    0.1365 N   0  0  0  0  0  0  0  0  0  0  0  0
   -1.1219    2.3392    0.0457 N   0  0  0  0  0  2  0  0  0  0  0  0
    1.8337    1.9008    0.1421 N   0  0  0  0  0  2  0  0  0  0  0  0
    2.7988    1.5447    0.1116 H   0  0  0  0  0  0  0  0  0  0  0  0
   -4.7417   -0.9122    0.1877 C   0  0  0  0  0  0  0  0  0  0  0  0
   -4.4905   -1.9916   -0.6778 C   0  0  0  0  0  0  0  0  0  0  0  0
   -3.8116   -1.8600   -1.5311 H   0  0  0  0  0  0  0  0  0  0  0  0
   -5.1086   -3.2247   -0.4288 C   0  0  0  0  0  0  0  0  0  0  0  0
   -4.9136   -4.0732   -1.1015 H   0  0  0  0  0  0  0  0  0  0  0  0
   -5.9837   -3.3738    0.6592 C   0  0  0  0  0  0  0  0  0  0  0  0
   -6.4748   -4.3407    0.8430 H   0  0  0  0  0  0  0  0  0  0  0  0
   -6.2300   -2.2884    1.5156 C   0  0  0  0  0  0  0  0  0  0  0  0
   -6.9055   -2.4050    2.3759 H   0  0  0  0  0  0  0  0  0  0  0  0
   -5.5987   -1.0565    1.2949 C   0  0  0  0  0  0  0  0  0  0  0  0
   -5.7512   -0.2134    1.9846 H   0  0  0  0  0  0  0  0  0  0  0  0
   -2.6895    0.4805   -0.0755 C   0  0  1  0  0  3  0  0  0  0  0  0
   -2.4488    1.9090    0.0134 C   0  0  0  0  0  0  0  0  0  0  0  0
   -3.6956    2.5333    0.1394 C   0  0  0  0  0  0  0  0  0  0  0  0
   -4.0423    3.9788    0.2685 C   0  0  0  0  0  0  0  0  0  0  0  0
   -3.9333    4.5172   -0.6966 H   0  0  0  0  0  0  0  0  0  0  0  0
   -3.3690    4.4671    1.0002 H   0  0  0  0  0  0  0  0  0  0  0  0
   -5.0768    4.1276    0.6264 H   0  0  0  0  0  0  0  0  0  0  0  0
   -6.0176    1.7380   -0.4039 C   0  0  0  0  0  0  0  0  0  0  0  0
   -6.0057    1.7768   -1.5143 H   0  0  0  0  0  0  0  0  0  0  0  0
   -6.4401    2.6763   -0.0057 H   0  0  0  0  0  0  0  0  0  0  0  0
   -6.6621    0.9035   -0.0750 H   0  0  0  0  0  0  0  0  0  0  0  0
   -0.7295    3.5952    0.0207 C   0  0  0  0  0  3  0  0  0  0  0  0
   -1.4986    4.3845   -0.0620 H   0  0  0  0  0  0  0  0  0  0  0  0
    0.6209    4.0836    0.0835 C   0  0  0  0  0  0  0  0  0  0  0  0
    1.8207    3.2786    0.1445 C   0  0  0  0  0  0  0  0  0  0  0  0
    3.0693    3.9590    0.1860 C   0  0  0  0  0  0  0  0  0  0  0  0
    3.9864    3.3505    0.2277 H   0  0  0  0  0  0  0  0  0  0  0  0
    3.1566    5.3473    0.1729 C   0  0  0  0  0  0  0  0  0  0  0  0
    4.1467    5.8264    0.2066 H   0  0  0  0  0  0  0  0  0  0  0  0
    1.9883    6.1397    0.1165 C   0  0  0  0  0  0  0  0  0  0  0  0
    2.0548    7.2364    0.1085 H   0  0  0  0  0  0  0  0  0  0  0  0
    0.7552    5.5055    0.0706 C   0  0  0  0  0  0  0  0  0  0  0  0
   -0.1656    6.1082    0.0242 H   0  0  0  0  0  0  0  0  0  0  0  0
  2  3  1  0  0  0  0
  2  7  1  0  0  0  0
  3 20  1  0  0  0  0
  5 32  1  0  0  0  0
  6  5  1  0  0  0  0
  7 16  1  0  0  0  0
  8 10  1  0  0  0  0
  8  7  2  0  0  0  0
  9  8  1  0  0  0  0
 10 12  2  0  0  0  0
 11 10  1  0  0  0  0
 12 13  1  0  0  0  0
 12 14  1  0  0  0  0
 14 15  1  0  0  0  0
 16 14  2  0  0  0  0
 16 17  1  0  0  0  0
 18  1  1  1  0  0  0
 18  2  1  0  0  0  0
 18 19  1  0  0  0  0
 19  4  1  0  0  0  0
 19 20  2  0  0  0  0
 20 21  1  0  0  0  0
 21 24  1  0  0  0  0
 21 23  1  0  0  0  0
 22 21  1  0  0  0  0
 25 28  1  0  0  0  0
 25 27  1  0  0  0  0
 25  3  1  0  0  0  0
 26 25  1  0  0  0  0
 29  4  1  0  0  0  0
 29 31  1  0  0  0  0
 30 29  1  0  0  0  0
 31 32  1  0  0  0  0
 32 33  2  0  0  0  0
 33 34  1  0  0  0  0
 35 33  1  0  0  0  0
 35 36  1  0  0  0  0
 37 35  2  0  0  0  0
 38 37  1  0  0  0  0
 39 31  2  0  0  0  0
 39 37  1  0  0  0  0
 40 39  1  0  0  0  0
M  END
