1,2,9
 OpenBabel05122313063D

 22 23  0  0  0  0  0  0  0  0999 V2000
   -0.8604   -1.2301    1.0424 O   0  5  0  0  0  0  0  0  0  0  0  0
    0.6148    1.4404   -1.2644 N   0  0  0  0  0  2  0  0  0  0  0  0
    1.6993    2.2208   -1.5558 C   0  0  0  0  0  0  0  0  0  0  0  0
    2.5868    2.2588   -0.9159 H   0  0  0  0  0  0  0  0  0  0  0  0
    0.1963    2.4837   -3.1638 N   0  0  0  0  0  0  0  0  0  0  0  0
   -0.2734    2.7848   -4.0194 H   0  0  0  0  0  0  0  0  0  0  0  0
    1.4520    2.8866   -2.7490 C   0  0  0  0  0  0  0  0  0  0  0  0
    2.0577    3.5957   -3.3209 H   0  0  0  0  0  0  0  0  0  0  0  0
   -1.5449    0.0701   -1.1020 N   0  0  0  0  0  2  0  0  0  0  0  0
   -0.2975    1.5992   -2.2504 C   0  0  0  0  0  0  0  0  0  0  0  0
   -1.5160    0.8424   -2.1725 C   0  0  0  0  0  0  0  0  0  0  0  0
   -2.3196    0.8787   -2.9240 H   0  0  0  0  0  0  0  0  0  0  0  0
   -2.4800   -0.8389   -0.6548 C   0  0  0  0  0  0  0  0  0  0  0  0
   -3.7361   -1.1233   -1.2457 C   0  0  0  0  0  0  0  0  0  0  0  0
   -4.0590   -0.5926   -2.1538 H   0  0  0  0  0  0  0  0  0  0  0  0
   -4.5520   -2.0830   -0.6593 C   0  0  0  0  0  0  0  0  0  0  0  0
   -5.5303   -2.3199   -1.1005 H   0  0  0  0  0  0  0  0  0  0  0  0
   -4.1201   -2.7643    0.5127 C   0  0  0  0  0  0  0  0  0  0  0  0
   -4.7783   -3.5244    0.9608 H   0  0  0  0  0  0  0  0  0  0  0  0
   -2.8904   -2.5011    1.1074 C   0  0  0  0  0  0  0  0  0  0  0  0
   -2.5564   -3.0320    2.0096 H   0  0  0  0  0  0  0  0  0  0  0  0
   -2.0303   -1.5228    0.5331 C   0  0  0  0  0  0  0  0  0  0  0  0
  3  2  1  0  0  0  0
  3  4  1  0  0  0  0
  5  7  1  0  0  0  0
  5 10  1  0  0  0  0
  6  5  1  0  0  0  0
  7  3  2  0  0  0  0
  8  7  1  0  0  0  0
  9 13  1  0  0  0  0
 10 11  2  0  0  0  0
 10  2  1  0  0  0  0
 11  9  1  0  0  0  0
 12 11  1  0  0  0  0
 13 22  1  0  0  0  0
 14 16  1  0  0  0  0
 14 13  2  0  0  0  0
 15 14  1  0  0  0  0
 16 18  2  0  0  0  0
 17 16  1  0  0  0  0
 18 19  1  0  0  0  0
 18 20  1  0  0  0  0
 20 21  1  0  0  0  0
 22  1  1  0  0  0  0
 22 20  2  0  0  0  0
M  CHG  1   1  -1
M  END
