1,3,4
 OpenBabel05122313063D

 30 31  0  0  0  0  0  0  0  0999 V2000
   -1.6625   -0.2763   -1.3238 O   0  5  0  0  0  0  0  0  0  0  0  0
   -1.6926   -1.9274    0.3350 N   0  0  0  0  0  0  0  0  0  0  0  0
   -0.3712   -1.9408    0.1305 N   0  0  0  0  0  2  0  0  0  0  0  0
    2.1162   -1.6113   -0.5879 N   0  0  0  0  0  2  0  0  0  0  0  0
   -3.7415   -0.8043   -0.2925 C   0  0  0  0  0  0  0  0  0  0  0  0
   -4.4676   -1.5215    0.6833 C   0  0  0  0  0  0  0  0  0  0  0  0
   -3.9328   -2.2592    1.2967 H   0  0  0  0  0  0  0  0  0  0  0  0
   -2.2820   -1.0085   -0.4602 C   0  0  0  0  0  0  0  0  0  0  0  0
    1.8504   -2.5939    0.3556 C   0  0  0  0  0  0  0  0  0  0  0  0
   -0.0029   -3.7940    1.7320 C   0  0  0  0  0  0  0  0  0  0  0  0
   -1.0926   -3.6837    1.8752 H   0  0  0  0  0  0  0  0  0  0  0  0
    0.5026   -3.6703    2.7128 H   0  0  0  0  0  0  0  0  0  0  0  0
    0.2075   -4.8235    1.3735 H   0  0  0  0  0  0  0  0  0  0  0  0
    4.4615   -2.1757   -0.5120 C   0  0  0  0  0  0  0  0  0  0  0  0
    5.4721   -1.9790   -0.8950 H   0  0  0  0  0  0  0  0  0  0  0  0
   -5.7738    0.3898   -0.9107 C   0  0  0  0  0  0  0  0  0  0  0  0
   -6.2868    1.1363   -1.5361 H   0  0  0  0  0  0  0  0  0  0  0  0
   -6.4921   -0.3245    0.0632 C   0  0  0  0  0  0  0  0  0  0  0  0
   -7.5680   -0.1373    0.2022 H   0  0  0  0  0  0  0  0  0  0  0  0
    0.4566   -2.7708    0.7460 C   0  0  0  0  0  0  0  0  0  0  0  0
   -5.8356   -1.2801    0.8581 C   0  0  0  0  0  0  0  0  0  0  0  0
   -6.3976   -1.8419    1.6199 H   0  0  0  0  0  0  0  0  0  0  0  0
    4.2181   -3.1528    0.4618 C   0  0  0  0  0  0  0  0  0  0  0  0
    5.0407   -3.7529    0.8775 H   0  0  0  0  0  0  0  0  0  0  0  0
    2.9017   -3.3643    0.8888 C   0  0  0  0  0  0  0  0  0  0  0  0
    2.6690   -4.1357    1.6349 H   0  0  0  0  0  0  0  0  0  0  0  0
    3.3830   -1.4357   -1.0127 C   0  0  0  0  0  0  0  0  0  0  0  0
    3.5264   -0.6747   -1.7902 H   0  0  0  0  0  0  0  0  0  0  0  0
   -4.4053    0.1526   -1.0890 C   0  0  0  0  0  0  0  0  0  0  0  0
   -3.8239    0.7003   -1.8438 H   0  0  0  0  0  0  0  0  0  0  0  0
  1  8  1  0  0  0  0
  3  2  1  0  0  0  0
  3 20  1  0  0  0  0
  4  9  1  0  0  0  0
  5  6  1  0  0  0  0
  6 21  2  0  0  0  0
  6  7  1  0  0  0  0
  8  5  1  0  0  0  0
  8  2  2  0  0  0  0
  9 20  2  0  0  0  0
  9 25  1  0  0  0  0
 10 11  1  0  0  0  0
 10 12  1  0  0  0  0
 13 10  1  0  0  0  0
 14 23  1  0  0  0  0
 15 14  1  0  0  0  0
 16 18  2  0  0  0  0
 17 16  1  0  0  0  0
 18 19  1  0  0  0  0
 18 21  1  0  0  0  0
 20 10  1  0  0  0  0
 21 22  1  0  0  0  0
 23 24  1  0  0  0  0
 23 25  2  0  0  0  0
 25 26  1  0  0  0  0
 27  4  1  0  0  0  0
 27 14  2  0  0  0  0
 28 27  1  0  0  0  0
 29 16  1  0  0  0  0
 29  5  2  0  0  0  0
 30 29  1  0  0  0  0
M  CHG  1   1  -1
M  END
