2,4,5
 OpenBabel05122313063D

 31 32  0  0  1  0  0  0  0  0999 V2000
   -4.3795   -0.2249   -0.9710 S   0  0  0  0  0  0  0  0  0  0  0  0
    1.2440    0.1995   -1.8890 O   0  5  0  0  0  0  0  0  0  0  0  0
    0.1334    1.6067   -3.2683 O   0  0  0  0  0  0  0  0  0  0  0  0
   -0.9388    0.0441   -0.1631 N   0  0  0  0  0  0  0  0  0  0  0  0
    1.3909    1.4226    0.5367 N   0  0  0  0  0  2  0  0  0  0  0  0
   -1.0138    1.2166    0.7489 C   0  0  0  0  0  0  0  0  0  0  0  0
   -1.0777    0.8218    1.7862 H   0  0  0  0  0  0  0  0  0  0  0  0
   -1.9356    1.8073    0.5644 H   0  0  0  0  0  0  0  0  0  0  0  0
    0.2109    2.0853    0.6537 C   0  0  1  0  0  3  0  0  0  0  0  0
    0.1604    3.4837    0.7237 C   0  0  0  0  0  0  0  0  0  0  0  0
   -0.8132    3.9885    0.7983 H   0  0  0  0  0  0  0  0  0  0  0  0
    1.3559    4.2135    0.6872 C   0  0  0  0  0  0  0  0  0  0  0  0
    1.3396    5.3122    0.7356 H   0  0  0  0  0  0  0  0  0  0  0  0
    2.5685    3.5199    0.5724 C   0  0  0  0  0  0  0  0  0  0  0  0
    3.5307    4.0489    0.5298 H   0  0  0  0  0  0  0  0  0  0  0  0
    2.5439    2.1246    0.4915 C   0  0  0  0  0  0  0  0  0  0  0  0
    3.4658    1.5370    0.3763 H   0  0  0  0  0  0  0  0  0  0  0  0
   -1.9330   -1.0024    0.2661 C   0  0  0  0  0  0  0  0  0  0  0  0
   -1.8401   -1.8349   -0.4573 H   0  0  0  0  0  0  0  0  0  0  0  0
   -1.5950   -1.3885    1.2475 H   0  0  0  0  0  0  0  0  0  0  0  0
   -3.3496   -0.5320    0.4061 C   0  0  0  0  0  0  0  0  0  0  0  0
   -4.0300   -0.2656    1.5861 C   0  0  0  0  0  0  0  0  0  0  0  0
   -3.5720   -0.4086    2.5756 H   0  0  0  0  0  0  0  0  0  0  0  0
   -5.3683    0.1848    1.3791 C   0  0  0  0  0  0  0  0  0  0  0  0
   -6.0675    0.4396    2.1870 H   0  0  0  0  0  0  0  0  0  0  0  0
   -5.6979    0.2582    0.0389 C   0  0  0  0  0  0  0  0  0  0  0  0
   -6.6477    0.5672   -0.4146 H   0  0  0  0  0  0  0  0  0  0  0  0
   -1.1285    0.4540   -1.5853 C   0  0  0  0  0  0  0  0  0  0  0  0
   -1.8606    1.2809   -1.6761 H   0  0  0  0  0  0  0  0  0  0  0  0
   -1.5368   -0.4172   -2.1373 H   0  0  0  0  0  0  0  0  0  0  0  0
    0.1843    0.8330   -2.3232 C   0  0  0  0  0  0  0  0  0  0  0  0
  1 26  1  0  0  0  0
  1 21  1  0  0  0  0
  3 31  2  0  0  0  0
  4 18  1  0  0  0  0
  4  6  1  0  0  0  0
  5  9  1  0  0  0  0
  6  7  1  0  0  0  0
  8  6  1  0  0  0  0
  9 10  1  0  0  0  0
  9  6  1  1  0  0  0
 10 11  1  0  0  0  0
 12 10  2  0  0  0  0
 12 13  1  0  0  0  0
 14 12  1  0  0  0  0
 15 14  1  0  0  0  0
 16  5  1  0  0  0  0
 16 14  2  0  0  0  0
 17 16  1  0  0  0  0
 18 21  1  0  0  0  0
 18 20  1  0  0  0  0
 19 18  1  0  0  0  0
 21 22  2  0  0  0  0
 22 23  1  0  0  0  0
 24 22  1  0  0  0  0
 24 25  1  0  0  0  0
 26 24  2  0  0  0  0
 27 26  1  0  0  0  0
 28  4  1  0  0  0  0
 29 28  1  0  0  0  0
 30 28  1  0  0  0  0
 31  2  1  0  0  0  0
 31 28  1  0  0  0  0
M  CHG  1   2  -1
M  END
