1,2,11
 OpenBabel05122313063D

 27 28  0  0  0  0  0  0  0  0999 V2000
    1.0984    1.1324   -1.6594 O   0  5  0  0  0  0  0  0  0  0  0  0
    2.0097   -0.8577   -0.1120 N   0  0  0  0  0  2  0  0  0  0  0  0
    2.3434    0.8445   -1.7192 C   0  0  0  0  0  0  0  0  0  0  0  0
    2.9335   -0.2432   -0.9083 C   0  0  0  0  0  0  0  0  0  0  0  0
    4.3402   -0.5405   -1.0086 C   0  0  0  0  0  0  0  0  0  0  0  0
    5.1258    0.2200   -1.8732 C   0  0  0  0  0  0  0  0  0  0  0  0
    4.5705    1.2711   -2.6510 C   0  0  0  0  0  0  0  0  0  0  0  0
    3.2251    1.5807   -2.5831 C   0  0  0  0  0  0  0  0  0  0  0  0
    4.9909   -1.6455   -0.2168 C   0  0  0  0  0  0  0  0  0  0  0  0
    2.0842   -1.8323    0.7597 C   0  0  0  0  0  0  0  0  0  0  0  0
   -0.2666   -1.5480    1.2031 N   0  0  0  0  0  2  0  0  0  0  0  0
    0.8752   -2.2352    1.4694 C   0  0  0  0  0  0  0  0  0  0  0  0
    0.8759   -3.3016    2.4003 C   0  0  0  0  0  0  0  0  0  0  0  0
   -0.3168   -3.6516    3.0380 C   0  0  0  0  0  0  0  0  0  0  0  0
   -1.4905   -2.9373    2.7398 C   0  0  0  0  0  0  0  0  0  0  0  0
   -1.4080   -1.8893    1.8099 C   0  0  0  0  0  0  0  0  0  0  0  0
    6.2004   -0.0051   -1.9533 H   0  0  0  0  0  0  0  0  0  0  0  0
    5.2302    1.8447   -3.3217 H   0  0  0  0  0  0  0  0  0  0  0  0
    2.7793    2.3879   -3.1818 H   0  0  0  0  0  0  0  0  0  0  0  0
    6.0692   -1.7092   -0.4574 H   0  0  0  0  0  0  0  0  0  0  0  0
    4.9025   -1.4851    0.8790 H   0  0  0  0  0  0  0  0  0  0  0  0
    4.5396   -2.6363   -0.4355 H   0  0  0  0  0  0  0  0  0  0  0  0
    3.0072   -2.3851    1.0001 H   0  0  0  0  0  0  0  0  0  0  0  0
    1.8118   -3.8434    2.6042 H   0  0  0  0  0  0  0  0  0  0  0  0
   -0.3362   -4.4807    3.7617 H   0  0  0  0  0  0  0  0  0  0  0  0
   -2.4511   -3.1847    3.2129 H   0  0  0  0  0  0  0  0  0  0  0  0
   -2.2971   -1.2975    1.5337 H   0  0  0  0  0  0  0  0  0  0  0  0
  2 10  1  0  0  0  0
  3  1  1  0  0  0  0
  3  4  1  0  0  0  0
  4  2  1  0  0  0  0
  5  4  2  0  0  0  0
  5  9  1  0  0  0  0
  6  5  1  0  0  0  0
  7  8  1  0  0  0  0
  7  6  2  0  0  0  0
  8  3  2  0  0  0  0
  9 21  1  0  0  0  0
 10 23  1  0  0  0  0
 10 12  2  0  0  0  0
 11 12  1  0  0  0  0
 11 16  1  0  0  0  0
 12 13  1  0  0  0  0
 13 24  1  0  0  0  0
 13 14  2  0  0  0  0
 14 25  1  0  0  0  0
 15 14  1  0  0  0  0
 15 26  1  0  0  0  0
 16 15  2  0  0  0  0
 17  6  1  0  0  0  0
 18  7  1  0  0  0  0
 19  8  1  0  0  0  0
 20  9  1  0  0  0  0
 22  9  1  0  0  0  0
 27 16  1  0  0  0  0
M  CHG  1   1  -1
M  END
