1,2,11
 OpenBabel05122313063D

 27 28  0  0  0  0  0  0  0  0999 V2000
   -1.0969   -1.1396   -1.6547 O   0  5  0  0  0  0  0  0  0  0  0  0
   -2.0098    0.8571   -0.1167 N   0  0  0  0  0  2  0  0  0  0  0  0
   -2.3421   -0.8527   -1.7161 C   0  0  0  0  0  0  0  0  0  0  0  0
   -2.9330    0.2383   -0.9103 C   0  0  0  0  0  0  0  0  0  0  0  0
   -4.3399    0.5343   -1.0122 C   0  0  0  0  0  0  0  0  0  0  0  0
   -5.1249   -0.2307   -1.8735 C   0  0  0  0  0  0  0  0  0  0  0  0
   -4.5688   -1.2849   -2.6464 C   0  0  0  0  0  0  0  0  0  0  0  0
   -3.2232   -1.5934   -2.5768 C   0  0  0  0  0  0  0  0  0  0  0  0
   -4.9915    1.6424   -0.2255 C   0  0  0  0  0  0  0  0  0  0  0  0
   -2.0849    1.8357    0.7504 C   0  0  0  0  0  3  0  0  0  0  0  0
    0.2659    1.5546    1.1955 N   0  0  0  0  0  2  0  0  0  0  0  0
    1.4071    1.8994    1.8008 C   0  0  0  0  0  3  0  0  0  0  0  0
    1.4891    2.9518    2.7257 C   0  0  0  0  0  0  0  0  0  0  0  0
    0.3149    3.6670    3.0204 C   0  0  0  0  0  0  0  0  0  0  0  0
   -0.8775    3.3133    2.3842 C   0  0  0  0  0  0  0  0  0  0  0  0
   -0.8762    2.2425    1.4584 C   0  0  0  0  0  0  0  0  0  0  0  0
   -6.1996   -0.0066   -1.9548 H   0  0  0  0  0  0  0  0  0  0  0  0
   -5.2280   -1.8620   -3.3146 H   0  0  0  0  0  0  0  0  0  0  0  0
   -2.7767   -2.4030   -3.1717 H   0  0  0  0  0  0  0  0  0  0  0  0
   -6.0698    1.7043   -0.4666 H   0  0  0  0  0  0  0  0  0  0  0  0
   -4.9031    1.4871    0.8709 H   0  0  0  0  0  0  0  0  0  0  0  0
   -4.5409    2.6326   -0.4488 H   0  0  0  0  0  0  0  0  0  0  0  0
   -3.0082    2.3891    0.9882 H   0  0  0  0  0  0  0  0  0  0  0  0
    2.2965    1.3067    1.5274 H   0  0  0  0  0  0  0  0  0  0  0  0
    2.4495    3.2020    3.1977 H   0  0  0  0  0  0  0  0  0  0  0  0
    0.3339    4.4994    3.7402 H   0  0  0  0  0  0  0  0  0  0  0  0
   -1.8137    3.8556    2.5855 H   0  0  0  0  0  0  0  0  0  0  0  0
  2 10  1  0  0  0  0
  3  1  1  0  0  0  0
  3  4  1  0  0  0  0
  4  2  1  0  0  0  0
  5  4  2  0  0  0  0
  5  9  1  0  0  0  0
  6  5  1  0  0  0  0
  7  8  1  0  0  0  0
  7  6  2  0  0  0  0
  8  3  2  0  0  0  0
  9 21  1  0  0  0  0
 10 23  1  0  0  0  0
 10 16  1  0  0  0  0
 11 16  1  0  0  0  0
 11 12  1  0  0  0  0
 12 13  1  0  0  0  0
 13 14  2  0  0  0  0
 13 25  1  0  0  0  0
 14 26  1  0  0  0  0
 15 27  1  0  0  0  0
 15 14  1  0  0  0  0
 16 15  2  0  0  0  0
 17  6  1  0  0  0  0
 18  7  1  0  0  0  0
 19  8  1  0  0  0  0
 20  9  1  0  0  0  0
 22  9  1  0  0  0  0
 24 12  1  0  0  0  0
M  CHG  1   1  -1
M  END
