1,2,3
 OpenBabel05122313063D

 36 37  0  0  0  0  0  0  0  0999 V2000
   -1.5745    0.7840    0.0552 O   0  5  0  0  0  0  0  0  0  0  0  0
   -0.5368   -1.7245    0.0953 N   0  0  0  0  0  2  0  0  0  0  0  0
    1.9297   -0.7689   -0.1534 N   0  0  0  0  0  0  0  0  0  0  0  0
   -2.9196   -1.2417    0.0139 C   0  0  0  0  0  0  0  0  0  0  0  0
   -2.7309    0.1912    0.0046 C   0  0  0  0  0  0  0  0  0  0  0  0
   -3.9028    1.0112   -0.0530 C   0  0  0  0  0  0  0  0  0  0  0  0
   -3.7468    2.0996   -0.0572 H   0  0  0  0  0  0  0  0  0  0  0  0
   -5.1703    0.4475   -0.1011 C   0  0  0  0  0  0  0  0  0  0  0  0
   -6.0505    1.1082   -0.1457 H   0  0  0  0  0  0  0  0  0  0  0  0
   -5.3526   -0.9611   -0.0923 C   0  0  0  0  0  0  0  0  0  0  0  0
   -6.3640   -1.3905   -0.1296 H   0  0  0  0  0  0  0  0  0  0  0  0
   -4.2379   -1.7836   -0.0338 C   0  0  0  0  0  3  0  0  0  0  0  0
   -4.3536   -2.8797   -0.0227 H   0  0  0  0  0  0  0  0  0  0  0  0
   -1.7953   -2.1126    0.0909 C   0  0  0  0  0  0  0  0  0  0  0  0
   -1.9974   -3.2007    0.1587 H   0  0  0  0  0  0  0  0  0  0  0  0
    0.5200   -2.7145    0.2832 C   0  0  0  0  0  0  0  0  0  0  0  0
    0.2156   -3.7207   -0.0791 H   0  0  0  0  0  0  0  0  0  0  0  0
    0.7495   -2.8183    1.3681 H   0  0  0  0  0  0  0  0  0  0  0  0
    1.7316   -2.2095   -0.4752 C   0  0  0  0  0  0  0  0  0  0  0  0
    1.5367   -2.2737   -1.5641 H   0  0  0  0  0  0  0  0  0  0  0  0
    2.6363   -2.8140   -0.2549 H   0  0  0  0  0  0  0  0  0  0  0  0
    2.5801   -0.5481    1.1770 C   0  0  0  0  0  0  0  0  0  0  0  0
    1.9854   -1.0787    1.9465 H   0  0  0  0  0  0  0  0  0  0  0  0
    2.4740    0.5373    1.3752 H   0  0  0  0  0  0  0  0  0  0  0  0
    4.0540   -0.9646    1.2175 C   0  0  0  0  0  0  0  0  0  0  0  0
    4.1521   -2.0691    1.1261 H   0  0  0  0  0  0  0  0  0  0  0  0
    4.4581   -0.7061    2.2180 H   0  0  0  0  0  0  0  0  0  0  0  0
    4.8530   -0.2744    0.1056 C   0  0  0  0  0  0  0  0  0  0  0  0
    4.8863    0.8188    0.3074 H   0  0  0  0  0  0  0  0  0  0  0  0
    5.9042   -0.6288    0.0991 H   0  0  0  0  0  0  0  0  0  0  0  0
    4.1872   -0.5100   -1.2557 C   0  0  0  0  0  0  0  0  0  0  0  0
    4.6985    0.0689   -2.0521 H   0  0  0  0  0  0  0  0  0  0  0  0
    4.2785   -1.5802   -1.5467 H   0  0  0  0  0  0  0  0  0  0  0  0
    2.7189   -0.0797   -1.2203 C   0  0  0  0  0  0  0  0  0  0  0  0
    2.6285    1.0033   -1.0061 H   0  0  0  0  0  0  0  0  0  0  0  0
    2.2063   -0.2657   -2.1848 H   0  0  0  0  0  0  0  0  0  0  0  0
  2 16  1  0  0  0  0
  3 22  1  0  0  0  0
  4 14  2  0  0  0  0
  5  4  1  0  0  0  0
  5  1  1  0  0  0  0
  6  5  2  0  0  0  0
  7  6  1  0  0  0  0
  8 10  2  0  0  0  0
  8  6  1  0  0  0  0
  9  8  1  0  0  0  0
 10 12  1  0  0  0  0
 11 10  1  0  0  0  0
 12 13  1  0  0  0  0
 12  4  1  0  0  0  0
 14  2  1  0  0  0  0
 14 15  1  0  0  0  0
 16 18  1  0  0  0  0
 17 16  1  0  0  0  0
 19 21  1  0  0  0  0
 19  3  1  0  0  0  0
 19 16  1  0  0  0  0
 20 19  1  0  0  0  0
 22 25  1  0  0  0  0
 22 24  1  0  0  0  0
 22 23  1  0  0  0  0
 25 27  1  0  0  0  0
 26 25  1  0  0  0  0
 28 29  1  0  0  0  0
 28 25  1  0  0  0  0
 30 28  1  0  0  0  0
 31 34  1  0  0  0  0
 31 28  1  0  0  0  0
 32 31  1  0  0  0  0
 33 31  1  0  0  0  0
 34 35  1  0  0  0  0
 34  3  1  0  0  0  0
 36 34  1  0  0  0  0
M  CHG  1   1  -1
M  END
