2,3,4
 OpenBabel05122313063D

 33 34  0  0  0  0  0  0  0  0999 V2000
   -6.4918    0.5468    0.8387 Cl  0  0  0  0  0  0  0  0  0  0  0  0
   -0.2996    1.1755   -0.7417 N   0  0  0  0  0  2  0  0  0  0  0  0
    2.3911    0.7930   -0.6618 N   0  0  0  0  0  0  0  0  0  0  0  0
   -1.0978   -1.4170   -0.5022 O   0  5  0  0  0  0  0  0  0  0  0  0
   -2.5621    0.4559   -0.1465 C   0  0  0  0  0  0  0  0  0  0  0  0
   -2.2742   -0.9570   -0.1975 C   0  0  0  0  0  0  0  0  0  0  0  0
   -3.3477   -1.8605    0.0647 C   0  0  0  0  0  0  0  0  0  0  0  0
   -3.1288   -2.9364    0.0165 H   0  0  0  0  0  0  0  0  0  0  0  0
   -4.6177   -1.3973    0.3832 C   0  0  0  0  0  0  0  0  0  0  0  0
   -5.4322   -2.1050    0.5959 H   0  0  0  0  0  0  0  0  0  0  0  0
   -4.8841   -0.0051    0.4383 C   0  0  0  0  0  0  0  0  0  0  0  0
   -3.8740    0.9082    0.1688 C   0  0  0  0  0  0  0  0  0  0  0  0
   -4.0863    1.9873    0.1992 H   0  0  0  0  0  0  0  0  0  0  0  0
   -1.5602    1.4212   -0.4857 C   0  0  0  0  0  3  0  0  0  0  0  0
   -1.9058    2.4761   -0.5520 H   0  0  0  0  0  0  0  0  0  0  0  0
    0.5583    2.2814   -1.1462 C   0  0  0  0  0  0  0  0  0  0  0  0
    0.0913    3.2700   -0.9421 H   0  0  0  0  0  0  0  0  0  0  0  0
    0.7305    2.2231   -2.2466 H   0  0  0  0  0  0  0  0  0  0  0  0
    1.8848    2.1452   -0.4129 C   0  0  0  0  0  0  0  0  0  0  0  0
    1.7091    2.2501    0.6762 H   0  0  0  0  0  0  0  0  0  0  0  0
    2.6068    2.9327   -0.7243 H   0  0  0  0  0  0  0  0  0  0  0  0
    3.6039    0.3890    0.0145 C   0  0  0  0  0  0  0  0  0  0  0  0
    4.1832    1.1664    1.0310 C   0  0  0  0  0  0  0  0  0  0  0  0
    3.7315    2.1150    1.3498 H   0  0  0  0  0  0  0  0  0  0  0  0
    5.3613    0.7273    1.6588 C   0  0  0  0  0  0  0  0  0  0  0  0
    5.8054    1.3417    2.4566 H   0  0  0  0  0  0  0  0  0  0  0  0
    5.9681   -0.4743    1.2739 C   0  0  0  0  0  0  0  0  0  0  0  0
    6.8910   -0.8130    1.7676 H   0  0  0  0  0  0  0  0  0  0  0  0
    5.3811   -1.2480    0.2575 C   0  0  0  0  0  0  0  0  0  0  0  0
    5.8379   -2.2027   -0.0440 H   0  0  0  0  0  0  0  0  0  0  0  0
    4.2034   -0.8277   -0.3676 C   0  0  0  0  0  0  0  0  0  0  0  0
    3.7012   -1.4497   -1.1243 H   0  0  0  0  0  0  0  0  0  0  0  0
    2.5168    0.6350   -1.6725 H   0  0  0  0  0  0  0  0  0  0  0  0
  2 14  1  0  0  0  0
  3 19  1  0  0  0  0
  3 22  1  0  0  0  0
  4  6  1  0  0  0  0
  5 12  1  0  0  0  0
  6  5  2  0  0  0  0
  6  7  1  0  0  0  0
  7  9  2  0  0  0  0
  8  7  1  0  0  0  0
  9 11  1  0  0  0  0
  9 10  1  0  0  0  0
 11  1  1  0  0  0  0
 12 13  1  0  0  0  0
 12 11  2  0  0  0  0
 14  5  1  0  0  0  0
 15 14  1  0  0  0  0
 16 17  1  0  0  0  0
 16  2  1  0  0  0  0
 16 19  1  0  0  0  0
 18 16  1  0  0  0  0
 19 20  1  0  0  0  0
 21 19  1  0  0  0  0
 22 23  1  0  0  0  0
 23 24  1  0  0  0  0
 23 25  2  0  0  0  0
 25 26  1  0  0  0  0
 27 25  1  0  0  0  0
 27 28  1  0  0  0  0
 29 27  2  0  0  0  0
 30 29  1  0  0  0  0
 31 22  2  0  0  0  0
 31 29  1  0  0  0  0
 32 31  1  0  0  0  0
 33  3  1  0  0  0  0
M  CHG  1   4  -1
M  END
