3,6,27
 OpenBabel05122313063D

 36 37  0  0  1  0  0  0  0  0999 V2000
   -1.9087   -1.8789    1.5788 C   0  0  1  0  0  0  0  0  0  0  0  0
   -1.5160   -2.1798    2.5854 H   0  0  0  0  0  0  0  0  0  0  0  0
   -0.7481   -1.7520    0.6732 N   0  0  0  0  0  2  0  0  0  0  0  0
   -2.5257   -0.4818    1.7223 C   0  0  2  0  0  0  0  0  0  0  0  0
   -2.9485   -0.2186    0.7326 H   0  0  0  0  0  0  0  0  0  0  0  0
   -1.4120    0.4725    1.9489 N   0  0  0  0  0  0  0  0  0  0  0  0
   -1.1226    0.4334    2.9416 H   0  0  0  0  0  0  0  0  0  0  0  0
   -1.7389    1.4398    1.7937 H   0  0  0  0  0  0  0  0  0  0  0  0
   -3.6410   -0.4476    2.7651 C   0  0  0  0  0  0  0  0  0  0  0  0
   -3.2229   -0.7019    3.7672 H   0  0  0  0  0  0  0  0  0  0  0  0
   -4.0574    0.5796    2.8381 H   0  0  0  0  0  0  0  0  0  0  0  0
   -4.7373   -1.4527    2.3841 C   0  0  0  0  0  0  0  0  0  0  0  0
   -5.2154   -1.1187    1.4378 H   0  0  0  0  0  0  0  0  0  0  0  0
   -5.5340   -1.4636    3.1555 H   0  0  0  0  0  0  0  0  0  0  0  0
   -4.1571   -2.8592    2.1895 C   0  0  0  0  0  0  0  0  0  0  0  0
   -4.9521   -3.5588    1.8604 H   0  0  0  0  0  0  0  0  0  0  0  0
   -3.7897   -3.2433    3.1679 H   0  0  0  0  0  0  0  0  0  0  0  0
   -3.0035   -2.8777    1.1746 C   0  0  0  0  0  0  0  0  0  0  0  0
   -2.5936   -3.9049    1.1027 H   0  0  0  0  0  0  0  0  0  0  0  0
   -3.3712   -2.5984    0.1633 H   0  0  0  0  0  0  0  0  0  0  0  0
    2.8237   -1.8197   -1.9408 C   0  0  0  0  0  0  0  0  0  0  0  0
    3.7506   -0.6656   -2.2370 C   0  0  0  0  0  0  0  0  0  0  0  0
    3.3519    0.5413   -1.7732 O   0  0  0  0  0  0  0  0  0  0  0  0
    2.4328    0.3976   -1.3649 H   0  0  0  0  0  0  0  0  0  0  0  0
    4.8068   -0.8053   -2.8296 O   0  0  0  0  0  0  0  0  0  0  0  0
    1.6328   -1.6678   -1.1496 C   0  0  0  0  0  0  0  0  0  0  0  0
    1.2900   -0.4666   -0.7463 O   0  5  0  0  0  0  0  0  0  0  0  0
    0.8690   -2.8461   -0.8170 C   0  0  0  0  0  0  0  0  0  0  0  0
    1.2763   -4.0984   -1.3472 C   0  0  0  0  0  0  0  0  0  0  0  0
    0.6694   -4.9866   -1.1058 H   0  0  0  0  0  0  0  0  0  0  0  0
    2.4123   -4.2258   -2.1465 C   0  0  0  0  0  0  0  0  0  0  0  0
    2.7056   -5.2079   -2.5441 H   0  0  0  0  0  0  0  0  0  0  0  0
    3.1858   -3.0845   -2.4231 C   0  0  0  0  0  0  0  0  0  0  0  0
    4.1092   -3.1402   -3.0197 H   0  0  0  0  0  0  0  0  0  0  0  0
   -0.2923   -2.8084    0.0383 C   0  0  0  0  0  3  0  0  0  0  0  0
   -0.8137   -3.7757    0.1686 H   0  0  0  0  0  0  0  0  0  0  0  0
  1  4  1  0  0  0  0
  1  2  1  1  0  0  0
  3  1  1  0  0  0  0
  4  5  1  6  0  0  0
  4  6  1  0  0  0  0
  4  9  1  0  0  0  0
  6  7  1  0  0  0  0
  8  6  1  0  0  0  0
  9 11  1  0  0  0  0
  9 10  1  0  0  0  0
 12  9  1  0  0  0  0
 12 14  1  0  0  0  0
 13 12  1  0  0  0  0
 15 12  1  0  0  0  0
 15 17  1  0  0  0  0
 16 15  1  0  0  0  0
 18  1  1  0  0  0  0
 18 15  1  0  0  0  0
 19 18  1  0  0  0  0
 20 18  1  0  0  0  0
 21 26  1  0  0  0  0
 22 21  1  0  0  0  0
 22 23  1  0  0  0  0
 23 24  1  0  0  0  0
 25 22  2  0  0  0  0
 26 28  2  0  0  0  0
 26 27  1  0  0  0  0
 28 35  1  0  0  0  0
 29 30  1  0  0  0  0
 29 28  1  0  0  0  0
 31 29  2  0  0  0  0
 32 31  1  0  0  0  0
 33 31  1  0  0  0  0
 33 21  2  0  0  0  0
 34 33  1  0  0  0  0
 35 36  1  0  0  0  0
 35  3  1  0  0  0  0
M  CHG  1  27  -1
M  END
