3,4,6
 OpenBabel05122313063D

 36 36  0  0  0  0  0  0  0  0999 V2000
   -4.6483    0.8736   -0.0665 S   0  0  0  0  0  0  0  0  0  0  0  0
    3.9948   -0.6733    0.0175 O   0  0  0  0  0  0  0  0  0  0  0  0
    1.3906   -0.3713    0.0058 O   0  5  0  0  0  0  0  0  0  0  0  0
   -0.7951    1.2549   -0.1236 N   0  0  0  0  0  2  0  0  0  0  0  0
   -2.0964    1.6350   -0.0033 N   0  0  0  0  0  0  0  0  0  0  0  0
   -2.4439   -0.6607   -0.3805 N   0  0  0  0  0  2  0  0  0  0  0  0
    2.1213    0.7388   -0.0590 C   0  0  0  0  0  0  0  0  0  0  0  0
    1.5350    2.0330   -0.0991 C   0  0  0  0  0  0  0  0  0  0  0  0
    2.3777    3.1790   -0.1286 C   0  0  0  0  0  0  0  0  0  0  0  0
    3.7614    3.0364   -0.1272 C   0  0  0  0  0  0  0  0  0  0  0  0
    4.3483    1.7537   -0.0834 C   0  0  0  0  0  0  0  0  0  0  0  0
    3.5431    0.6031   -0.0438 C   0  0  0  0  0  0  0  0  0  0  0  0
    5.4011   -0.9030    0.0039 C   0  0  0  0  0  0  0  0  0  0  0  0
    5.6288   -2.4013    0.0561 C   0  0  0  0  0  0  0  0  0  0  0  0
    0.1051    2.2121   -0.0638 C   0  0  0  0  0  3  0  0  0  0  0  0
   -2.9003    0.5933   -0.1597 C   0  0  0  0  0  0  0  0  0  0  0  0
   -3.3733   -1.7857   -0.5320 C   0  0  0  0  0  0  0  0  0  0  0  0
   -3.7040   -2.4719    0.7928 C   0  0  0  0  0  0  0  0  0  0  0  0
   -4.6848    2.6714    0.1893 C   0  0  0  0  0  0  0  0  0  0  0  0
    1.9150    4.1769   -0.1585 H   0  0  0  0  0  0  0  0  0  0  0  0
    4.4095    3.9243   -0.1584 H   0  0  0  0  0  0  0  0  0  0  0  0
    5.4424    1.6603   -0.0775 H   0  0  0  0  0  0  0  0  0  0  0  0
    5.8465   -0.4622   -0.9187 H   0  0  0  0  0  0  0  0  0  0  0  0
    5.8770   -0.3944    0.8755 H   0  0  0  0  0  0  0  0  0  0  0  0
    5.1889   -2.8323    0.9769 H   0  0  0  0  0  0  0  0  0  0  0  0
    5.1592   -2.8982   -0.8152 H   0  0  0  0  0  0  0  0  0  0  0  0
    6.7138   -2.6246    0.0470 H   0  0  0  0  0  0  0  0  0  0  0  0
   -0.2891    3.2416    0.0277 H   0  0  0  0  0  0  0  0  0  0  0  0
   -4.3001   -1.4150   -1.0258 H   0  0  0  0  0  0  0  0  0  0  0  0
   -2.9211   -2.5108   -1.2367 H   0  0  0  0  0  0  0  0  0  0  0  0
   -4.1365   -1.7507    1.5144 H   0  0  0  0  0  0  0  0  0  0  0  0
   -4.4381   -3.2872    0.6315 H   0  0  0  0  0  0  0  0  0  0  0  0
   -2.7899   -2.9156    1.2325 H   0  0  0  0  0  0  0  0  0  0  0  0
   -4.1512    2.9402    1.1188 H   0  0  0  0  0  0  0  0  0  0  0  0
   -4.2186    3.1946   -0.6652 H   0  0  0  0  0  0  0  0  0  0  0  0
   -5.7569    2.9345    0.2666 H   0  0  0  0  0  0  0  0  0  0  0  0
  1 19  1  0  0  0  0
  4 15  1  0  0  0  0
  4  5  1  0  0  0  0
  6 16  1  0  0  0  0
  7 12  1  0  0  0  0
  7  3  1  0  0  0  0
  8 15  1  0  0  0  0
  8  7  2  0  0  0  0
  9 10  2  0  0  0  0
  9  8  1  0  0  0  0
 10 11  1  0  0  0  0
 11 22  1  0  0  0  0
 11 12  2  0  0  0  0
 12  2  1  0  0  0  0
 13  2  1  0  0  0  0
 13 14  1  0  0  0  0
 13 24  1  0  0  0  0
 14 25  1  0  0  0  0
 15 28  1  0  0  0  0
 16  1  1  0  0  0  0
 16  5  2  0  0  0  0
 17  6  1  0  0  0  0
 17 18  1  0  0  0  0
 18 33  1  0  0  0  0
 18 31  1  0  0  0  0
 19 36  1  0  0  0  0
 19 34  1  0  0  0  0
 20  9  1  0  0  0  0
 21 10  1  0  0  0  0
 23 13  1  0  0  0  0
 26 14  1  0  0  0  0
 27 14  1  0  0  0  0
 29 17  1  0  0  0  0
 30 17  1  0  0  0  0
 32 18  1  0  0  0  0
 35 19  1  0  0  0  0
M  CHG  1   3  -1
M  END
