1,15,19
 OpenBabel05122313063D

 27 28  0  0  0  0  0  0  0  0999 V2000
    1.2891    0.7504    0.4413 O   0  5  0  0  0  0  0  0  0  0  0  0
    2.0458    0.9913   -0.5846 C   0  0  0  0  0  0  0  0  0  0  0  0
    3.0998    2.0078   -0.4736 C   0  0  0  0  0  0  0  0  0  0  0  0
    3.9441    2.2859   -1.5749 C   0  0  0  0  0  0  0  0  0  0  0  0
    3.7965    1.7335   -2.5131 H   0  0  0  0  0  0  0  0  0  0  0  0
    4.9447    3.2554   -1.4550 C   0  0  0  0  0  0  0  0  0  0  0  0
    5.6012    3.4735   -2.3102 H   0  0  0  0  0  0  0  0  0  0  0  0
    5.1095    3.9521   -0.2449 C   0  0  0  0  0  0  0  0  0  0  0  0
    5.8971    4.7155   -0.1555 H   0  0  0  0  0  0  0  0  0  0  0  0
    4.2709    3.6799    0.8509 C   0  0  0  0  0  0  0  0  0  0  0  0
    4.4022    4.2298    1.7945 H   0  0  0  0  0  0  0  0  0  0  0  0
    3.2682    2.7119    0.7411 C   0  0  0  0  0  0  0  0  0  0  0  0
    2.6007    2.4872    1.5848 H   0  0  0  0  0  0  0  0  0  0  0  0
    1.8949    0.3310   -1.7601 N   0  0  0  0  0  0  0  0  0  0  0  0
    0.8875   -0.5228   -1.6433 N   0  0  0  0  0  2  0  0  0  0  0  0
    0.4162   -1.3003   -2.5994 C   0  0  0  0  0  0  0  0  0  0  0  0
    0.8427   -1.2971   -3.6140 H   0  0  0  0  0  0  0  0  0  0  0  0
   -0.7080   -2.1088   -2.1862 C   0  0  0  0  0  0  0  0  0  0  0  0
   -1.0911   -1.9272   -0.8746 N   0  0  0  0  0  2  0  0  0  0  0  0
   -2.1355   -2.6044   -0.3702 C   0  0  0  0  0  0  0  0  0  0  0  0
   -2.3958   -2.3984    0.6785 H   0  0  0  0  0  0  0  0  0  0  0  0
   -2.8648   -3.5182   -1.1420 C   0  0  0  0  0  0  0  0  0  0  0  0
   -3.7148   -4.0501   -0.6933 H   0  0  0  0  0  0  0  0  0  0  0  0
   -2.4889   -3.7261   -2.4790 C   0  0  0  0  0  0  0  0  0  0  0  0
   -3.0437   -4.4365   -3.1093 H   0  0  0  0  0  0  0  0  0  0  0  0
   -1.4042   -3.0178   -3.0070 C   0  0  0  0  0  0  0  0  0  0  0  0
   -1.0874   -3.1515   -4.0509 H   0  0  0  0  0  0  0  0  0  0  0  0
  2  3  1  0  0  0  0
  2  1  1  0  0  0  0
  3 12  1  0  0  0  0
  4  6  1  0  0  0  0
  4  3  2  0  0  0  0
  5  4  1  0  0  0  0
  6  8  2  0  0  0  0
  7  6  1  0  0  0  0
  8  9  1  0  0  0  0
  8 10  1  0  0  0  0
 10 11  1  0  0  0  0
 12 10  2  0  0  0  0
 12 13  1  0  0  0  0
 14 15  1  0  0  0  0
 14  2  2  0  0  0  0
 16 18  2  0  0  0  0
 16 15  1  0  0  0  0
 17 16  1  0  0  0  0
 18 19  1  0  0  0  0
 19 20  1  0  0  0  0
 20 21  1  0  0  0  0
 22 23  1  0  0  0  0
 22 20  2  0  0  0  0
 24 22  1  0  0  0  0
 25 24  1  0  0  0  0
 26 24  2  0  0  0  0
 26 18  1  0  0  0  0
 27 26  1  0  0  0  0
M  CHG  1   1  -1
M  END
