1,4,7
 OpenBabel05122313063D

 60 64  0  0  1  0  0  0  0  0999 V2000
    0.1579   -1.9452    0.0562 N   0  0  0  0  0  2  0  0  0  0  0  0
    3.5024   -1.0419    0.2660 N   0  0  0  0  0  2  0  0  0  0  0  0
    2.8298    1.5182   -1.0773 N   0  0  0  0  0  0  0  0  0  0  0  0
   -0.7453    1.0789   -0.7497 N   0  0  0  0  0  2  0  0  0  0  0  0
    0.0561   -4.0425   -0.7687 O   0  0  0  0  0  0  0  0  0  0  0  0
    2.4226   -1.4451   -1.7794 O   0  0  0  0  0  0  0  0  0  0  0  0
    1.4482    0.7475    0.6357 O   0  5  0  0  0  0  0  0  0  0  0  0
   -0.8884    2.8242   -2.1741 O   0  0  0  0  0  0  0  0  0  0  0  0
   -0.5621   -2.8790   -0.5203 C   0  0  1  0  0  3  0  0  0  0  0  0
   -1.9852   -2.8298   -0.8885 C   0  0  0  0  0  0  0  0  0  0  0  0
   -2.5681   -1.6406   -1.3732 C   0  0  0  0  0  0  0  0  0  0  0  0
   -3.9252   -1.6157   -1.7155 C   0  0  0  0  0  0  0  0  0  0  0  0
   -4.7095   -2.7726   -1.5773 C   0  0  0  0  0  0  0  0  0  0  0  0
   -4.1279   -3.9637   -1.1131 C   0  0  0  0  0  0  0  0  0  0  0  0
   -2.7685   -3.9992   -0.7794 C   0  0  0  0  0  0  0  0  0  0  0  0
    1.4641   -3.8593   -0.4715 C   0  0  0  0  0  0  0  0  0  0  0  0
    1.5467   -2.4745    0.2029 C   0  0  1  0  0  0  0  0  0  0  0  0
    2.5626   -1.5755   -0.5369 C   0  0  0  0  0  0  0  0  0  0  0  0
    4.4647   -0.2086   -0.3555 C   0  0  2  0  0  0  0  0  0  0  0  0
    5.8173   -0.3465    0.3683 C   0  0  0  0  0  0  0  0  0  0  0  0
    6.8972    0.5956   -0.1616 C   0  0  0  0  0  0  0  0  0  0  0  0
    6.4454    2.0546   -0.0575 C   0  0  0  0  0  0  0  0  0  0  0  0
    5.1182    2.2605   -0.7862 C   0  0  0  0  0  0  0  0  0  0  0  0
    3.9948    1.3477   -0.2776 C   0  0  1  0  0  0  0  0  0  0  0  0
    1.6877    1.1401   -0.5946 C   0  0  0  0  0  0  0  0  0  0  0  0
    0.4993    1.0375   -1.5439 C   0  0  2  0  0  0  0  0  0  0  0  0
    0.3711    2.1991   -2.5398 C   0  0  0  0  0  0  0  0  0  0  0  0
   -1.4306    2.1172   -1.1639 C   0  0  2  0  0  3  0  0  0  0  0  0
   -2.7130    2.6137   -0.6547 C   0  0  0  0  0  0  0  0  0  0  0  0
   -3.5826    1.7685    0.0655 C   0  0  0  0  0  0  0  0  0  0  0  0
   -4.7975    2.2610    0.5546 C   0  0  0  0  0  0  0  0  0  0  0  0
   -5.1561    3.6000    0.3290 C   0  0  0  0  0  0  0  0  0  0  0  0
   -4.3006    4.4431   -0.4006 C   0  0  0  0  0  0  0  0  0  0  0  0
   -3.0868    3.9552   -0.8981 C   0  0  0  0  0  0  0  0  0  0  0  0
   -1.9487   -0.7397   -1.4713 H   0  0  0  0  0  0  0  0  0  0  0  0
   -4.3740   -0.6838   -2.0910 H   0  0  0  0  0  0  0  0  0  0  0  0
   -5.7784   -2.7477   -1.8383 H   0  0  0  0  0  0  0  0  0  0  0  0
   -4.7390   -4.8726   -1.0091 H   0  0  0  0  0  0  0  0  0  0  0  0
   -2.3039   -4.9277   -0.4186 H   0  0  0  0  0  0  0  0  0  0  0  0
    2.0022   -3.8500   -1.4418 H   0  0  0  0  0  0  0  0  0  0  0  0
    1.7984   -4.7046    0.1583 H   0  0  0  0  0  0  0  0  0  0  0  0
    1.8069   -2.5102    1.2775 H   0  0  0  0  0  0  0  0  0  0  0  0
    4.5569   -0.4007   -1.4524 H   0  0  0  0  0  0  0  0  0  0  0  0
    6.1341   -1.4058    0.2743 H   0  0  0  0  0  0  0  0  0  0  0  0
    5.6405   -0.1706    1.4512 H   0  0  0  0  0  0  0  0  0  0  0  0
    7.1139    0.3532   -1.2262 H   0  0  0  0  0  0  0  0  0  0  0  0
    7.8447    0.4364    0.3947 H   0  0  0  0  0  0  0  0  0  0  0  0
    7.2158    2.7385   -0.4708 H   0  0  0  0  0  0  0  0  0  0  0  0
    6.3269    2.3266    1.0153 H   0  0  0  0  0  0  0  0  0  0  0  0
    5.2393    2.0744   -1.8753 H   0  0  0  0  0  0  0  0  0  0  0  0
    4.7691    3.3100   -0.6870 H   0  0  0  0  0  0  0  0  0  0  0  0
    3.7981    1.5023    0.8092 H   0  0  0  0  0  0  0  0  0  0  0  0
    0.6124    0.0445   -2.0350 H   0  0  0  0  0  0  0  0  0  0  0  0
    0.2980    1.8796   -3.5969 H   0  0  0  0  0  0  0  0  0  0  0  0
    1.1955    2.9317   -2.4313 H   0  0  0  0  0  0  0  0  0  0  0  0
   -3.3064    0.7210    0.2242 H   0  0  0  0  0  0  0  0  0  0  0  0
   -5.4654    1.5911    1.1160 H   0  0  0  0  0  0  0  0  0  0  0  0
   -6.1085    3.9886    0.7203 H   0  0  0  0  0  0  0  0  0  0  0  0
   -4.5816    5.4913   -0.5811 H   0  0  0  0  0  0  0  0  0  0  0  0
   -2.4110    4.6072   -1.4685 H   0  0  0  0  0  0  0  0  0  0  0  0
  1 17  1  0  0  0  0
  3 25  2  0  0  0  0
  3 24  1  0  0  0  0
  5  9  1  0  0  0  0
  5 16  1  0  0  0  0
  6 18  2  0  0  0  0
  8 28  1  0  0  0  0
  9 10  1  1  0  0  0
  9  1  1  0  0  0  0
 10 15  1  0  0  0  0
 11 10  2  0  0  0  0
 12 13  2  0  0  0  0
 12 11  1  0  0  0  0
 13 14  1  0  0  0  0
 14 38  1  0  0  0  0
 14 15  2  0  0  0  0
 15 39  1  0  0  0  0
 16 41  1  0  0  0  0
 16 17  1  0  0  0  0
 17 42  1  1  0  0  0
 18 17  1  0  0  0  0
 18  2  1  0  0  0  0
 19 43  1  6  0  0  0
 19 24  1  0  0  0  0
 19  2  1  0  0  0  0
 19 20  1  0  0  0  0
 20 45  1  0  0  0  0
 21 22  1  0  0  0  0
 21 20  1  0  0  0  0
 21 47  1  0  0  0  0
 22 49  1  0  0  0  0
 23 51  1  0  0  0  0
 23 24  1  0  0  0  0
 23 22  1  0  0  0  0
 24 52  1  1  0  0  0
 25  7  1  0  0  0  0
 26 53  1  6  0  0  0
 26  4  1  0  0  0  0
 26 25  1  0  0  0  0
 27 55  1  0  0  0  0
 27  8  1  0  0  0  0
 27 26  1  0  0  0  0
 28  4  1  0  0  0  0
 28 29  1  1  0  0  0
 29 30  1  0  0  0  0
 30 56  1  0  0  0  0
 30 31  2  0  0  0  0
 31 57  1  0  0  0  0
 32 31  1  0  0  0  0
 32 58  1  0  0  0  0
 33 32  2  0  0  0  0
 34 29  2  0  0  0  0
 34 33  1  0  0  0  0
 35 11  1  0  0  0  0
 36 12  1  0  0  0  0
 37 13  1  0  0  0  0
 40 16  1  0  0  0  0
 44 20  1  0  0  0  0
 46 21  1  0  0  0  0
 48 22  1  0  0  0  0
 50 23  1  0  0  0  0
 54 27  1  0  0  0  0
 59 33  1  0  0  0  0
 60 34  1  0  0  0  0
M  CHG  1   7  -1
M  END
