1,7,8
 OpenBabel05122313063D

 54 58  0  0  1  0  0  0  0  0999 V2000
    1.4793   -1.5191    0.7622 O   0  0  0  0  0  1  0  0  0  0  0  0
    4.4581    0.3286   -0.0083 O   0  0  0  0  0  0  0  0  0  0  0  0
   -1.3759   -1.6228   -0.7984 O   0  0  0  0  0  0  0  0  0  0  0  0
   -4.4713    0.0652   -0.4090 O   0  0  0  0  0  0  0  0  0  0  0  0
    2.1596   -0.9498   -1.3795 O   0  0  0  0  0  0  0  0  0  0  0  0
    3.0480    0.2475    0.4040 N   0  0  0  0  0  0  0  0  0  0  0  0
    2.2358    1.2077    0.2079 N   0  0  0  0  0  2  0  0  0  0  0  0
   -0.0768    2.4925   -0.1794 N   0  0  0  0  0  2  0  0  0  0  0  0
   -2.2460    1.0148   -0.6890 N   0  0  0  0  0  0  0  0  0  0  0  0
   -3.0434    0.0018   -0.7559 N   0  0  0  0  0  0  0  0  0  0  0  0
    2.4921   -1.1878    0.0263 C   0  0  1  0  0  0  0  0  0  0  0  0
    3.8156   -1.9190    0.1018 C   0  0  0  0  0  0  0  0  0  0  0  0
    4.8647   -0.9870    0.0118 C   0  0  0  0  0  0  0  0  0  0  0  0
    6.2061   -1.3760   -0.0257 C   0  0  0  0  0  0  0  0  0  0  0  0
    7.0091   -0.6277   -0.0837 H   0  0  0  0  0  0  0  0  0  0  0  0
    6.4775   -2.7564    0.0216 C   0  0  0  0  0  0  0  0  0  0  0  0
    7.5242   -3.0954   -0.0095 H   0  0  0  0  0  0  0  0  0  0  0  0
    5.4425   -3.7022    0.1285 C   0  0  0  0  0  0  0  0  0  0  0  0
    5.6856   -4.7736    0.1830 H   0  0  0  0  0  0  0  0  0  0  0  0
    4.0986   -3.2836    0.1725 C   0  0  0  0  0  0  0  0  0  0  0  0
    3.2750   -4.0064    0.2702 H   0  0  0  0  0  0  0  0  0  0  0  0
    2.3577    2.4839   -0.0528 C   0  0  0  0  0  0  0  0  0  0  0  0
    3.6637    3.2218   -0.1931 C   0  0  0  0  0  0  0  0  0  0  0  0
    4.5173    2.5355   -0.0752 H   0  0  0  0  0  0  0  0  0  0  0  0
    3.7506    4.0210    0.5738 H   0  0  0  0  0  0  0  0  0  0  0  0
    3.7471    3.7106   -1.1864 H   0  0  0  0  0  0  0  0  0  0  0  0
    1.0792    3.2013   -0.2044 C   0  0  0  0  0  0  0  0  0  0  0  0
    1.0553    4.6076   -0.3956 C   0  0  0  0  0  0  0  0  0  0  0  0
    1.9912    5.1802   -0.4063 H   0  0  0  0  0  0  0  0  0  0  0  0
   -0.1705    5.2534   -0.5580 C   0  0  0  0  0  0  0  0  0  0  0  0
   -0.2070    6.3428   -0.7082 H   0  0  0  0  0  0  0  0  0  0  0  0
   -1.3542    4.5044   -0.5374 C   0  0  0  0  0  0  0  0  0  0  0  0
   -2.3255    4.9895   -0.6980 H   0  0  0  0  0  0  0  0  0  0  0  0
   -1.2654    3.1083   -0.3521 C   0  0  0  0  0  0  0  0  0  0  0  0
   -2.4838    2.2534   -0.3817 C   0  0  0  0  0  0  0  0  0  0  0  0
   -3.8285    2.7928    0.0211 C   0  0  0  0  0  0  0  0  0  0  0  0
   -4.1061    2.3162    0.9840 H   0  0  0  0  0  0  0  0  0  0  0  0
   -4.6157    2.5418   -0.7140 H   0  0  0  0  0  0  0  0  0  0  0  0
   -3.8055    3.8847    0.1755 H   0  0  0  0  0  0  0  0  0  0  0  0
   -2.5675   -1.3421   -0.6912 C   0  0  0  0  0  0  0  0  0  0  0  0
   -3.7645   -2.1350   -0.4642 C   0  0  0  0  0  0  0  0  0  0  0  0
   -4.8389   -1.2403   -0.2945 C   0  0  0  0  0  0  0  0  0  0  0  0
   -6.1426   -1.6813   -0.0341 C   0  0  0  0  0  0  0  0  0  0  0  0
   -6.9702   -0.9707    0.0941 H   0  0  0  0  0  0  0  0  0  0  0  0
   -6.3247   -3.0680    0.0675 C   0  0  0  0  0  0  0  0  0  0  0  0
   -7.3329   -3.4547    0.2797 H   0  0  0  0  0  0  0  0  0  0  0  0
   -5.2545   -3.9809   -0.0881 C   0  0  0  0  0  0  0  0  0  0  0  0
   -5.4469   -5.0594    0.0053 H   0  0  0  0  0  0  0  0  0  0  0  0
   -3.9608   -3.5218   -0.3534 C   0  0  0  0  0  0  0  0  0  0  0  0
   -3.1090   -4.2070   -0.4714 H   0  0  0  0  0  0  0  0  0  0  0  0
    1.7001   -2.1155   -2.0466 C   0  0  0  0  0  0  0  0  0  0  0  0
    0.8476   -2.5821   -1.5097 H   0  0  0  0  0  0  0  0  0  0  0  0
    2.5163   -2.8654   -2.1704 H   0  0  0  0  0  0  0  0  0  0  0  0
    1.3615   -1.7965   -3.0515 H   0  0  0  0  0  0  0  0  0  0  0  0
  2 13  1  0  0  0  0
  2  6  1  0  0  0  0
  3 40  2  0  0  0  0
  4 42  1  0  0  0  0
  5 11  1  0  0  0  0
  7  6  1  0  0  0  0
  9 35  2  0  0  0  0
 10 40  1  0  0  0  0
 10  9  1  0  0  0  0
 10  4  1  0  0  0  0
 11 12  1  0  0  0  0
 11  6  1  0  0  0  0
 11  1  1  1  0  0  0
 12 20  1  0  0  0  0
 13 12  2  0  0  0  0
 14 13  1  0  0  0  0
 14 16  2  0  0  0  0
 15 14  1  0  0  0  0
 16 18  1  0  0  0  0
 17 16  1  0  0  0  0
 18 20  2  0  0  0  0
 18 19  1  0  0  0  0
 20 21  1  0  0  0  0
 22  7  1  0  0  0  0
 23 24  1  0  0  0  0
 23 22  1  0  0  0  0
 23 25  1  0  0  0  0
 26 23  1  0  0  0  0
 27  8  1  0  0  0  0
 27 22  2  0  0  0  0
 28 27  1  0  0  0  0
 29 28  1  0  0  0  0
 30 32  1  0  0  0  0
 30 28  2  0  0  0  0
 31 30  1  0  0  0  0
 32 34  2  0  0  0  0
 33 32  1  0  0  0  0
 34  8  1  0  0  0  0
 35 34  1  0  0  0  0
 35 36  1  0  0  0  0
 36 39  1  0  0  0  0
 36 37  1  0  0  0  0
 38 36  1  0  0  0  0
 40 41  1  0  0  0  0
 41 49  2  0  0  0  0
 41 42  1  0  0  0  0
 42 43  2  0  0  0  0
 43 45  1  0  0  0  0
 43 44  1  0  0  0  0
 45 46  1  0  0  0  0
 47 48  1  0  0  0  0
 47 45  2  0  0  0  0
 49 47  1  0  0  0  0
 50 49  1  0  0  0  0
 51 52  1  0  0  0  0
 51  5  1  0  0  0  0
 53 51  1  0  0  0  0
 54 51  1  0  0  0  0
M  END
