3,4,6
 OpenBabel05122313063D

 26 26  0  0  1  0  0  0  0  0999 V2000
   -7.0229   -0.2855    0.0148 Br  0  0  0  0  0  0  0  0  0  0  0  0
    1.7990    4.9393   -0.0767 S   0  0  0  0  0  0  0  0  0  0  0  0
   -0.9757   -0.5140   -0.2455 O   0  0  0  0  0  1  0  0  0  0  0  0
   -0.9463    2.2151   -0.0007 N   0  0  0  0  0  2  0  0  0  0  0  0
   -0.4315    3.4724    0.0449 N   0  0  0  0  0  0  0  0  0  0  0  0
    1.5435    2.2257   -0.1022 N   0  0  0  0  0  2  0  0  0  0  0  0
   -2.2813   -0.4010   -0.1921 C   0  0  2  0  0  3  0  0  0  0  0  0
   -3.0617   -1.5889   -0.3029 C   0  0  0  0  0  0  0  0  0  0  0  0
   -2.5214   -2.5375   -0.4363 H   0  0  0  0  0  0  0  0  0  0  0  0
   -4.4514   -1.5567   -0.2430 C   0  0  0  0  0  0  0  0  0  0  0  0
   -5.0349   -2.4847   -0.3277 H   0  0  0  0  0  0  0  0  0  0  0  0
   -5.1159   -0.3194   -0.0711 C   0  0  0  0  0  0  0  0  0  0  0  0
   -4.3943    0.8634    0.0315 C   0  0  0  0  0  0  0  0  0  0  0  0
   -4.9166    1.8232    0.1569 H   0  0  0  0  0  0  0  0  0  0  0  0
   -2.9716    0.8514   -0.0292 C   0  0  0  0  0  0  0  0  0  0  0  0
   -2.2609    2.0880    0.0528 C   0  0  0  0  0  0  0  0  0  0  0  0
   -2.8277    3.0305    0.1546 H   0  0  0  0  0  0  0  0  0  0  0  0
    0.8895    3.4098   -0.0363 C   0  0  0  0  0  0  0  0  0  0  0  0
    0.4434    6.1306    0.1399 C   0  0  0  0  0  0  0  0  0  0  0  0
    0.9184    7.1297    0.1058 H   0  0  0  0  0  0  0  0  0  0  0  0
   -0.0626    5.9769    1.1105 H   0  0  0  0  0  0  0  0  0  0  0  0
   -0.2952    6.0238   -0.6751 H   0  0  0  0  0  0  0  0  0  0  0  0
    2.9775    2.2297   -0.3202 C   0  0  0  0  0  0  0  0  0  0  0  0
    3.4557    1.3494    0.1475 H   0  0  0  0  0  0  0  0  0  0  0  0
    3.4481    3.1254    0.1430 H   0  0  0  0  0  0  0  0  0  0  0  0
    3.2478    2.2183   -1.4000 H   0  0  0  0  0  0  0  0  0  0  0  0
  2 18  1  0  0  0  0
  2 19  1  0  0  0  0
  4  5  1  0  0  0  0
  4 16  1  0  0  0  0
  6 18  1  0  0  0  0
  7  3  1  6  0  0  0
  7 15  1  0  0  0  0
  8 10  2  0  0  0  0
  8  7  1  0  0  0  0
  9  8  1  0  0  0  0
 10 12  1  0  0  0  0
 11 10  1  0  0  0  0
 12  1  1  0  0  0  0
 12 13  2  0  0  0  0
 13 14  1  0  0  0  0
 15 13  1  0  0  0  0
 15 16  2  0  0  0  0
 16 17  1  0  0  0  0
 18  5  2  0  0  0  0
 19 21  1  0  0  0  0
 20 19  1  0  0  0  0
 22 19  1  0  0  0  0
 23  6  1  0  0  0  0
 23 25  1  0  0  0  0
 23 24  1  0  0  0  0
 26 23  1  0  0  0  0
M  END
