1,2,3
 OpenBabel05122313063D

 55 57  0  0  1  0  0  0  0  0999 V2000
    2.2982    0.3462   -1.5666 O   0  5  0  0  0  0  0  0  0  0  0  0
    1.4994   -0.6557    0.8925 N   0  0  0  0  0  2  0  0  0  0  0  0
   -1.1172   -0.2158    0.4552 N   0  0  0  0  0  2  0  0  0  0  0  0
    3.5224    0.3942   -1.0703 C   0  0  0  0  0  0  0  0  0  0  0  0
    4.5385    0.9824   -1.8617 C   0  0  0  0  0  0  0  0  0  0  0  0
    4.2507    1.3545   -2.8549 H   0  0  0  0  0  0  0  0  0  0  0  0
    5.8417    1.0949   -1.3807 C   0  0  0  0  0  0  0  0  0  0  0  0
    6.6164    1.5652   -2.0050 H   0  0  0  0  0  0  0  0  0  0  0  0
    6.1567    0.6236   -0.0921 C   0  0  0  0  0  0  0  0  0  0  0  0
    7.1742    0.7334    0.3097 H   0  0  0  0  0  0  0  0  0  0  0  0
    5.1643    0.0238    0.6843 C   0  0  0  0  0  0  0  0  0  0  0  0
    5.4276   -0.3075    1.6983 H   0  0  0  0  0  0  0  0  0  0  0  0
    3.8300   -0.1274    0.2266 C   0  0  0  0  0  0  0  0  0  0  0  0
    2.8361   -0.8114    1.0825 C   0  0  1  0  0  3  0  0  0  0  0  0
    3.2851   -1.6442    2.1459 C   0  0  0  0  0  0  0  0  0  0  0  0
    4.3561   -1.8545    2.2494 H   0  0  0  0  0  0  0  0  0  0  0  0
    2.3815   -2.2111    3.0372 C   0  0  0  0  0  0  0  0  0  0  0  0
    2.7361   -2.8544    3.8557 H   0  0  0  0  0  0  0  0  0  0  0  0
    1.0144   -1.9485    2.8768 C   0  0  0  0  0  0  0  0  0  0  0  0
    0.2768   -2.3547    3.5793 H   0  0  0  0  0  0  0  0  0  0  0  0
    0.6093   -1.1787    1.7771 C   0  0  0  0  0  0  0  0  0  0  0  0
   -0.8233   -0.8771    1.5351 C   0  0  1  0  0  3  0  0  0  0  0  0
   -1.8448   -1.3355    2.5346 C   0  0  0  0  0  0  0  0  0  0  0  0
   -1.5977   -0.9597    3.5475 H   0  0  0  0  0  0  0  0  0  0  0  0
   -1.8600   -2.4437    2.5844 H   0  0  0  0  0  0  0  0  0  0  0  0
   -2.8522   -0.9825    2.2546 H   0  0  0  0  0  0  0  0  0  0  0  0
   -2.4903    0.1257    0.1613 C   0  0  0  0  0  0  0  0  0  0  0  0
   -3.3015   -0.7922   -0.5593 C   0  0  0  0  0  0  0  0  0  0  0  0
   -4.6173   -0.4037   -0.8731 C   0  0  0  0  0  0  0  0  0  0  0  0
   -5.2531   -1.1019   -1.4385 H   0  0  0  0  0  0  0  0  0  0  0  0
   -5.1294    0.8369   -0.4829 C   0  0  0  0  0  0  0  0  0  0  0  0
   -6.1596    1.1206   -0.7460 H   0  0  0  0  0  0  0  0  0  0  0  0
   -4.3243    1.7078    0.2565 C   0  0  0  0  0  0  0  0  0  0  0  0
   -4.7291    2.6768    0.5860 H   0  0  0  0  0  0  0  0  0  0  0  0
   -2.9989    1.3785    0.5972 C   0  0  0  0  0  0  0  0  0  0  0  0
   -2.8240   -2.1727   -0.9861 C   0  0  0  0  0  0  0  0  0  0  0  0
   -1.7823   -2.3029   -0.6366 H   0  0  0  0  0  0  0  0  0  0  0  0
   -3.6751   -3.2864   -0.3523 C   0  0  0  0  0  0  0  0  0  0  0  0
   -3.6947   -3.2100    0.7544 H   0  0  0  0  0  0  0  0  0  0  0  0
   -3.2670   -4.2827   -0.6193 H   0  0  0  0  0  0  0  0  0  0  0  0
   -4.7273   -3.2538   -0.7042 H   0  0  0  0  0  0  0  0  0  0  0  0
   -2.7803   -2.2935   -2.5185 C   0  0  0  0  0  0  0  0  0  0  0  0
   -3.7951   -2.2111   -2.9613 H   0  0  0  0  0  0  0  0  0  0  0  0
   -2.3546   -3.2730   -2.8162 H   0  0  0  0  0  0  0  0  0  0  0  0
   -2.1437   -1.4988   -2.9526 H   0  0  0  0  0  0  0  0  0  0  0  0
   -2.1938    2.3558    1.4412 C   0  0  0  0  0  0  0  0  0  0  0  0
   -1.1741    1.9447    1.5661 H   0  0  0  0  0  0  0  0  0  0  0  0
   -2.0311    3.7053    0.7232 C   0  0  0  0  0  0  0  0  0  0  0  0
   -1.5753    3.5592   -0.2749 H   0  0  0  0  0  0  0  0  0  0  0  0
   -1.3663    4.3749    1.3053 H   0  0  0  0  0  0  0  0  0  0  0  0
   -3.0058    4.2205    0.5936 H   0  0  0  0  0  0  0  0  0  0  0  0
   -2.8096    2.5249    2.8410 C   0  0  0  0  0  0  0  0  0  0  0  0
   -3.8261    2.9682    2.7920 H   0  0  0  0  0  0  0  0  0  0  0  0
   -2.1820    3.1964    3.4622 H   0  0  0  0  0  0  0  0  0  0  0  0
   -2.8979    1.5537    3.3704 H   0  0  0  0  0  0  0  0  0  0  0  0
  1  4  1  0  0  0  0
  2 14  1  0  0  0  0
  2 21  1  0  0  0  0
  4 13  1  0  0  0  0
  5  7  1  0  0  0  0
  5  4  2  0  0  0  0
  6  5  1  0  0  0  0
  7  9  2  0  0  0  0
  8  7  1  0  0  0  0
  9 10  1  0  0  0  0
  9 11  1  0  0  0  0
 11 12  1  0  0  0  0
 13 11  2  0  0  0  0
 14 13  1  1  0  0  0
 14 15  1  0  0  0  0
 15 16  1  0  0  0  0
 15 17  2  0  0  0  0
 17 18  1  0  0  0  0
 19 17  1  0  0  0  0
 19 20  1  0  0  0  0
 21 19  2  0  0  0  0
 22  3  1  1  0  0  0
 22 21  1  0  0  0  0
 22 23  1  0  0  0  0
 23 25  1  0  0  0  0
 23 24  1  0  0  0  0
 26 23  1  0  0  0  0
 27  3  1  0  0  0  0
 27 35  1  0  0  0  0
 28 27  2  0  0  0  0
 29 28  1  0  0  0  0
 29 31  2  0  0  0  0
 30 29  1  0  0  0  0
 31 33  1  0  0  0  0
 32 31  1  0  0  0  0
 33 34  1  0  0  0  0
 33 35  2  0  0  0  0
 35 46  1  0  0  0  0
 36 37  1  0  0  0  0
 36 28  1  0  0  0  0
 36 38  1  0  0  0  0
 38 39  1  0  0  0  0
 40 38  1  0  0  0  0
 41 38  1  0  0  0  0
 42 36  1  0  0  0  0
 43 42  1  0  0  0  0
 44 42  1  0  0  0  0
 45 42  1  0  0  0  0
 46 47  1  0  0  0  0
 46 52  1  0  0  0  0
 48 50  1  0  0  0  0
 48 46  1  0  0  0  0
 49 48  1  0  0  0  0
 51 48  1  0  0  0  0
 52 55  1  0  0  0  0
 52 54  1  0  0  0  0
 53 52  1  0  0  0  0
M  CHG  1   1  -1
M  END
