1,2,3
 OpenBabel05122313063D

 65 68  0  0  1  0  0  0  0  0999 V2000
    1.9528    0.0246   -0.7682 O   0  5  0  0  0  0  0  0  0  0  0  0
    0.2149    2.0200   -0.0625 N   0  0  0  0  0  2  0  0  0  0  0  0
   -1.9098    0.4174    0.0468 N   0  0  0  0  0  2  0  0  0  0  0  0
    2.8851    0.7587   -0.1796 C   0  0  0  0  0  0  0  0  0  0  0  0
    2.6607    2.1431    0.0987 C   0  0  0  0  0  0  0  0  0  0  0  0
    3.7329    2.9108    0.6155 C   0  0  0  0  0  0  0  0  0  0  0  0
    3.5695    3.9678    0.8705 H   0  0  0  0  0  0  0  0  0  0  0  0
    4.9796    2.3371    0.8672 C   0  0  0  0  0  0  0  0  0  0  0  0
    5.7933    2.9477    1.2846 H   0  0  0  0  0  0  0  0  0  0  0  0
    5.1730    0.9655    0.6335 C   0  0  0  0  0  0  0  0  0  0  0  0
    6.1376    0.4962    0.8805 H   0  0  0  0  0  0  0  0  0  0  0  0
    4.1416    0.1534    0.1336 C   0  0  0  0  0  0  0  0  0  0  0  0
    4.3368   -1.3069   -0.0495 C   0  0  0  0  0  0  0  0  0  0  0  0
    5.5096   -1.8070   -0.6551 C   0  0  0  0  0  0  0  0  0  0  0  0
    6.2601   -1.1000   -1.0415 H   0  0  0  0  0  0  0  0  0  0  0  0
    5.7123   -3.1878   -0.7938 C   0  0  0  0  0  0  0  0  0  0  0  0
    6.6284   -3.5596   -1.2780 H   0  0  0  0  0  0  0  0  0  0  0  0
    4.7451   -4.0913   -0.3271 C   0  0  0  0  0  0  0  0  0  0  0  0
    4.9004   -5.1752   -0.4399 H   0  0  0  0  0  0  0  0  0  0  0  0
    3.5769   -3.6046    0.2828 C   0  0  0  0  0  0  0  0  0  0  0  0
    2.8141   -4.3051    0.6554 H   0  0  0  0  0  0  0  0  0  0  0  0
    3.3707   -2.2264    0.4218 C   0  0  0  0  0  0  0  0  0  0  0  0
    2.4618   -1.8513    0.9145 H   0  0  0  0  0  0  0  0  0  0  0  0
    1.3415    2.7720   -0.1048 C   0  0  2  0  0  3  0  0  0  0  0  0
    1.2323    4.1794   -0.2924 C   0  0  0  0  0  0  0  0  0  0  0  0
    2.1432    4.7808   -0.4062 H   0  0  0  0  0  0  0  0  0  0  0  0
   -0.0191    4.7838   -0.3525 C   0  0  0  0  0  0  0  0  0  0  0  0
   -0.1052    5.8700   -0.5036 H   0  0  0  0  0  0  0  0  0  0  0  0
   -1.1707    3.9917   -0.2161 C   0  0  0  0  0  0  0  0  0  0  0  0
   -2.1705    4.4437   -0.2299 H   0  0  0  0  0  0  0  0  0  0  0  0
   -1.0073    2.6052   -0.0882 C   0  0  0  0  0  0  0  0  0  0  0  0
   -2.1681    1.6864    0.0709 C   0  0  2  0  0  3  0  0  0  0  0  0
   -2.9219   -0.5771    0.2327 C   0  0  0  0  0  0  0  0  0  0  0  0
   -3.6384   -1.0565   -0.8942 C   0  0  0  0  0  0  0  0  0  0  0  0
   -4.6084   -2.0512   -0.6719 C   0  0  0  0  0  0  0  0  0  0  0  0
   -5.1784   -2.4396   -1.5298 H   0  0  0  0  0  0  0  0  0  0  0  0
   -4.8537   -2.5576    0.6099 C   0  0  0  0  0  0  0  0  0  0  0  0
   -5.6171   -3.3363    0.7587 H   0  0  0  0  0  0  0  0  0  0  0  0
   -4.1191   -2.0776    1.7006 C   0  0  0  0  0  0  0  0  0  0  0  0
   -4.3085   -2.4825    2.7065 H   0  0  0  0  0  0  0  0  0  0  0  0
   -3.1334   -1.0865    1.5396 C   0  0  0  0  0  0  0  0  0  0  0  0
   -3.5443    2.2531    0.2598 C   0  0  0  0  0  0  0  0  0  0  0  0
   -4.2731    1.4493    0.4651 H   0  0  0  0  0  0  0  0  0  0  0  0
   -3.8622    2.7878   -0.6594 H   0  0  0  0  0  0  0  0  0  0  0  0
   -3.5607    2.9851    1.0915 H   0  0  0  0  0  0  0  0  0  0  0  0
   -3.3636   -0.5511   -2.3046 C   0  0  0  0  0  0  0  0  0  0  0  0
   -2.5890    0.2367   -2.2426 H   0  0  0  0  0  0  0  0  0  0  0  0
   -2.7522   -1.6688   -3.1683 C   0  0  0  0  0  0  0  0  0  0  0  0
   -1.8386   -2.0685   -2.6887 H   0  0  0  0  0  0  0  0  0  0  0  0
   -2.4758   -1.2752   -4.1675 H   0  0  0  0  0  0  0  0  0  0  0  0
   -3.4667   -2.5059   -3.3152 H   0  0  0  0  0  0  0  0  0  0  0  0
   -4.6184    0.0561   -2.9518 C   0  0  0  0  0  0  0  0  0  0  0  0
   -5.4183   -0.7009   -3.0905 H   0  0  0  0  0  0  0  0  0  0  0  0
   -4.3769    0.4690   -3.9525 H   0  0  0  0  0  0  0  0  0  0  0  0
   -5.0419    0.8765   -2.3361 H   0  0  0  0  0  0  0  0  0  0  0  0
   -2.3455   -0.5787    2.7410 C   0  0  0  0  0  0  0  0  0  0  0  0
   -1.5678    0.1127    2.3653 H   0  0  0  0  0  0  0  0  0  0  0  0
   -3.2527    0.1890    3.7174 C   0  0  0  0  0  0  0  0  0  0  0  0
   -3.7662    1.0367    3.2186 H   0  0  0  0  0  0  0  0  0  0  0  0
   -2.6613    0.5974    4.5625 H   0  0  0  0  0  0  0  0  0  0  0  0
   -4.0389   -0.4680    4.1448 H   0  0  0  0  0  0  0  0  0  0  0  0
   -1.5883   -1.7214    3.4357 C   0  0  0  0  0  0  0  0  0  0  0  0
   -2.2772   -2.4887    3.8461 H   0  0  0  0  0  0  0  0  0  0  0  0
   -0.9836   -1.3254    4.2769 H   0  0  0  0  0  0  0  0  0  0  0  0
   -0.8963   -2.2075    2.7223 H   0  0  0  0  0  0  0  0  0  0  0  0
  1  4  1  0  0  0  0
  3 33  1  0  0  0  0
  4  5  2  0  0  0  0
  4 12  1  0  0  0  0
  5  6  1  0  0  0  0
  6  8  2  0  0  0  0
  6  7  1  0  0  0  0
  8  9  1  0  0  0  0
 10  8  1  0  0  0  0
 10 11  1  0  0  0  0
 12 10  2  0  0  0  0
 13 12  1  0  0  0  0
 13 22  1  0  0  0  0
 14 13  2  0  0  0  0
 15 14  1  0  0  0  0
 16 14  1  0  0  0  0
 16 18  2  0  0  0  0
 17 16  1  0  0  0  0
 18 20  1  0  0  0  0
 19 18  1  0  0  0  0
 20 22  2  0  0  0  0
 20 21  1  0  0  0  0
 22 23  1  0  0  0  0
 24  2  1  0  0  0  0
 24  5  1  1  0  0  0
 25 24  1  0  0  0  0
 26 25  1  0  0  0  0
 27 25  2  0  0  0  0
 27 29  1  0  0  0  0
 28 27  1  0  0  0  0
 29 31  2  0  0  0  0
 30 29  1  0  0  0  0
 31  2  1  0  0  0  0
 31 32  1  0  0  0  0
 32  3  1  1  0  0  0
 32 42  1  0  0  0  0
 33 41  1  0  0  0  0
 34 35  1  0  0  0  0
 34 33  2  0  0  0  0
 35 37  2  0  0  0  0
 36 35  1  0  0  0  0
 37 38  1  0  0  0  0
 37 39  1  0  0  0  0
 39 40  1  0  0  0  0
 41 39  2  0  0  0  0
 41 56  1  0  0  0  0
 42 43  1  0  0  0  0
 42 45  1  0  0  0  0
 44 42  1  0  0  0  0
 46 47  1  0  0  0  0
 46 34  1  0  0  0  0
 48 49  1  0  0  0  0
 48 46  1  0  0  0  0
 50 48  1  0  0  0  0
 51 48  1  0  0  0  0
 52 55  1  0  0  0  0
 52 46  1  0  0  0  0
 53 52  1  0  0  0  0
 54 52  1  0  0  0  0
 56 62  1  0  0  0  0
 56 58  1  0  0  0  0
 57 56  1  0  0  0  0
 58 61  1  0  0  0  0
 58 60  1  0  0  0  0
 59 58  1  0  0  0  0
 62 63  1  0  0  0  0
 62 64  1  0  0  0  0
 65 62  1  0  0  0  0
M  CHG  1   1  -1
M  END
