2,4,5
 OpenBabel05122313063D

 26 26  0  0  1  0  0  0  0  0999 V2000
    1.5810   -4.5153   -0.0906 S   0  0  0  0  0  0  0  0  0  0  0  0
    1.1022    1.5633   -0.2064 O   0  0  0  0  0  1  0  0  0  0  0  0
    2.8017   -2.1165   -0.0235 N   0  0  0  0  0  0  0  0  0  0  0  0
    0.4847   -2.0536   -0.1453 N   0  0  0  0  0  2  0  0  0  0  0  0
    2.5983   -0.7600   -0.0441 N   0  0  0  0  0  2  0  0  0  0  0  0
    3.5389    1.4863   -0.0331 C   0  0  0  0  0  0  0  0  0  0  0  0
    2.2701    2.1612   -0.1622 C   0  0  1  0  0  3  0  0  0  0  0  0
    1.6415   -2.7431   -0.0853 C   0  0  0  0  0  0  0  0  0  0  0  0
    3.6609    0.0422    0.0317 C   0  0  0  0  0  0  0  0  0  0  0  0
    4.7155    2.2935    0.0165 C   0  0  0  0  0  0  0  0  0  0  0  0
    3.4294    4.3317   -0.2028 C   0  0  0  0  0  0  0  0  0  0  0  0
    4.6764    3.6811   -0.0632 C   0  0  0  0  0  0  0  0  0  0  0  0
    2.2581    3.5862   -0.2517 C   0  0  0  0  0  0  0  0  0  0  0  0
    5.0280   -0.5788    0.1739 C   0  0  0  0  0  0  0  0  0  0  0  0
    3.3524   -4.9191   -0.0771 C   0  0  0  0  0  0  0  0  0  0  0  0
    5.6923    1.8016    0.1158 H   0  0  0  0  0  0  0  0  0  0  0  0
    5.6093    4.2621   -0.0225 H   0  0  0  0  0  0  0  0  0  0  0  0
    3.3817    5.4296   -0.2747 H   0  0  0  0  0  0  0  0  0  0  0  0
    1.2744    4.0643   -0.3679 H   0  0  0  0  0  0  0  0  0  0  0  0
    4.9283   -1.6733    0.2539 H   0  0  0  0  0  0  0  0  0  0  0  0
    5.6626   -0.3372   -0.7034 H   0  0  0  0  0  0  0  0  0  0  0  0
    5.5459   -0.1861    1.0718 H   0  0  0  0  0  0  0  0  0  0  0  0
    3.8305   -4.5305    0.8410 H   0  0  0  0  0  0  0  0  0  0  0  0
    3.4129   -6.0239   -0.1028 H   0  0  0  0  0  0  0  0  0  0  0  0
    3.8537   -4.4864   -0.9625 H   0  0  0  0  0  0  0  0  0  0  0  0
   -0.3806   -2.5901   -0.2576 H   0  0  0  0  0  0  0  0  0  0  0  0
  1  8  1  0  0  0  0
  1 15  1  0  0  0  0
  4  8  1  0  0  0  0
  5  3  1  0  0  0  0
  5  9  1  0  0  0  0
  6 10  1  0  0  0  0
  6  9  2  0  0  0  0
  7  2  1  6  0  0  0
  7  6  1  0  0  0  0
  8  3  2  0  0  0  0
  9 14  1  0  0  0  0
 10 16  1  0  0  0  0
 11 12  1  0  0  0  0
 12 17  1  0  0  0  0
 12 10  2  0  0  0  0
 13 11  2  0  0  0  0
 13  7  1  0  0  0  0
 14 20  1  0  0  0  0
 14 22  1  0  0  0  0
 15 23  1  0  0  0  0
 18 11  1  0  0  0  0
 19 13  1  0  0  0  0
 21 14  1  0  0  0  0
 24 15  1  0  0  0  0
 25 15  1  0  0  0  0
 26  4  1  0  0  0  0
M  END
