33,34,35
 OpenBabel05122313063D

 35 36  0  0  0  0  0  0  0  0999 V2000
    2.3392   -0.7336    0.0827 C   0  0  0  0  0  0  0  0  0  0  0  0
    3.4634   -1.2470   -0.5938 C   0  0  0  0  0  0  0  0  0  0  0  0
    3.3977   -2.2577   -1.0209 H   0  0  0  0  0  0  0  0  0  0  0  0
    4.6220   -0.4692   -0.7143 C   0  0  0  0  0  0  0  0  0  0  0  0
    5.4941   -0.8756   -1.2490 H   0  0  0  0  0  0  0  0  0  0  0  0
    4.6726    0.8208   -0.1611 C   0  0  0  0  0  0  0  0  0  0  0  0
    5.5821    1.4319   -0.2565 H   0  0  0  0  0  0  0  0  0  0  0  0
    3.5541    1.3248    0.5196 C   0  0  0  0  0  0  0  0  0  0  0  0
    3.5894    2.3315    0.9665 H   0  0  0  0  0  0  0  0  0  0  0  0
    2.3789    0.5658    0.6574 C   0  0  0  0  0  0  0  0  0  0  0  0
    1.1988    1.0682    1.4509 C   0  0  0  0  0  0  0  0  0  0  0  0
    0.9421    0.3368    2.2459 H   0  0  0  0  0  0  0  0  0  0  0  0
    1.4660    2.0354    1.9369 H   0  0  0  0  0  0  0  0  0  0  0  0
   -1.1706    1.6521    1.5130 C   0  0  0  0  0  0  0  0  0  0  0  0
   -1.1318    2.7497    1.6983 H   0  0  0  0  0  0  0  0  0  0  0  0
   -1.0461    1.1337    2.4796 H   0  0  0  0  0  0  0  0  0  0  0  0
   -2.5302    1.2224    0.9127 C   0  0  0  0  0  0  0  0  0  0  0  0
   -3.0052    0.5020    1.6012 H   0  0  0  0  0  0  0  0  0  0  0  0
   -3.2170    2.0872    0.7763 H   0  0  0  0  0  0  0  0  0  0  0  0
    0.1555    2.2248   -0.4474 C   0  0  0  0  0  0  0  0  0  0  0  0
    0.8471    1.7737   -1.1807 H   0  0  0  0  0  0  0  0  0  0  0  0
    0.6432    3.1386   -0.0300 H   0  0  0  0  0  0  0  0  0  0  0  0
   -1.1630    2.6445   -1.1071 C   0  0  0  0  0  0  0  0  0  0  0  0
   -0.9195    3.2001   -2.0353 H   0  0  0  0  0  0  0  0  0  0  0  0
   -1.6773    3.3800   -0.4542 H   0  0  0  0  0  0  0  0  0  0  0  0
   -2.1527    1.5359   -1.4819 C   0  0  0  0  0  0  0  0  0  0  0  0
   -3.1351    2.0082   -1.7117 H   0  0  0  0  0  0  0  0  0  0  0  0
   -1.8152    0.9829   -2.3771 H   0  0  0  0  0  0  0  0  0  0  0  0
   -3.5996   -0.2543   -0.6932 C   0  0  0  0  0  0  0  0  0  0  0  0
   -3.7130   -1.0470    0.0683 H   0  0  0  0  0  0  0  0  0  0  0  0
   -3.4972   -0.7288   -1.6858 H   0  0  0  0  0  0  0  0  0  0  0  0
   -4.4927    0.4095   -0.6890 H   0  0  0  0  0  0  0  0  0  0  0  0
   -0.0442    1.2423    0.6485 N   0  0  0  0  0  0  0  0  0  0  0  0
   -2.3754    0.5279   -0.3962 N   0  0  0  0  0  0  0  0  0  0  0  0
    1.2255   -1.4930    0.1908 O   0  5  0  0  0  0  0  0  0  0  0  0
  1 35  1  0  0  0  0
  1 10  1  0  0  0  0
  2  1  2  0  0  0  0
  3  2  1  0  0  0  0
  4  2  1  0  0  0  0
  4  6  2  0  0  0  0
  5  4  1  0  0  0  0
  6  8  1  0  0  0  0
  7  6  1  0  0  0  0
  8 10  2  0  0  0  0
  8  9  1  0  0  0  0
 10 11  1  0  0  0  0
 11 13  1  0  0  0  0
 11 12  1  0  0  0  0
 14 15  1  0  0  0  0
 14 16  1  0  0  0  0
 17 14  1  0  0  0  0
 17 18  1  0  0  0  0
 19 17  1  0  0  0  0
 20 22  1  0  0  0  0
 20 33  1  0  0  0  0
 21 20  1  0  0  0  0
 23 25  1  0  0  0  0
 23 20  1  0  0  0  0
 24 23  1  0  0  0  0
 26 23  1  0  0  0  0
 26 34  1  0  0  0  0
 27 26  1  0  0  0  0
 28 26  1  0  0  0  0
 29 32  1  0  0  0  0
 29 34  1  0  0  0  0
 29 30  1  0  0  0  0
 31 29  1  0  0  0  0
 33 11  1  0  0  0  0
 33 14  1  0  0  0  0
 34 17  1  0  0  0  0
M  CHG  1  35  -1
M  END
