1,3,5
 OpenBabel05122313063D

 26 26  0  0  0  0  0  0  0  0999 V2000
    1.1566   -0.8859   -0.3910 O   0  5  0  0  0  0  0  0  0  0  0  0
    3.7715   -1.1297   -0.4332 O   0  0  0  0  0  0  0  0  0  0  0  0
   -2.5549   -1.4234   -0.1991 N   0  0  0  0  0  2  0  0  0  0  0  0
   -3.1418   -2.2568   -0.2704 H   0  0  0  0  0  0  0  0  0  0  0  0
   -1.0574    0.6981   -0.0379 N   0  0  0  0  0  2  0  0  0  0  0  0
   -5.8009   -0.1876   -0.3809 N   0  0  0  0  0  0  0  0  0  0  0  0
   -3.3427    3.3628   -0.1494 N   0  0  0  0  0  0  0  0  0  0  0  0
   -3.1936   -0.2500   -0.1962 C   0  0  0  0  0  0  0  0  0  0  0  0
   -2.4203    0.9341   -0.1151 C   0  0  0  0  0  0  0  0  0  0  0  0
   -0.1778    1.6648    0.0825 C   0  0  0  0  0  3  0  0  0  0  0  0
   -0.5400    2.7120    0.1752 H   0  0  0  0  0  0  0  0  0  0  0  0
    1.2484    1.4836    0.0899 C   0  0  0  0  0  0  0  0  0  0  0  0
    2.0805    2.6230    0.2957 C   0  0  0  0  0  0  0  0  0  0  0  0
    1.5969    3.5960    0.4786 H   0  0  0  0  0  0  0  0  0  0  0  0
    3.4635    2.5144    0.2709 C   0  0  0  0  0  0  0  0  0  0  0  0
    4.0982    3.3978    0.4386 H   0  0  0  0  0  0  0  0  0  0  0  0
    4.0687    1.2561    0.0268 C   0  0  0  0  0  0  0  0  0  0  0  0
    5.1651    1.1807    0.0099 H   0  0  0  0  0  0  0  0  0  0  0  0
    3.2816    0.1203   -0.1862 C   0  0  0  0  0  0  0  0  0  0  0  0
    1.8380    0.1965   -0.1589 C   0  0  0  0  0  0  0  0  0  0  0  0
   -4.6288   -0.1844   -0.2947 C   0  0  0  0  0  0  0  0  0  0  0  0
   -2.9693    2.2429   -0.1378 C   0  0  0  0  0  0  0  0  0  0  0  0
    5.1651   -1.2940   -0.4587 C   0  0  0  0  0  0  0  0  0  0  0  0
    5.6502   -0.6845   -1.2587 H   0  0  0  0  0  0  0  0  0  0  0  0
    5.3555   -2.3654   -0.6622 H   0  0  0  0  0  0  0  0  0  0  0  0
    5.6414   -1.0232    0.5138 H   0  0  0  0  0  0  0  0  0  0  0  0
  1 20  1  0  0  0  0
  2 19  1  0  0  0  0
  3  8  1  0  0  0  0
  4  3  1  0  0  0  0
  5 10  1  0  0  0  0
  6 21  3  0  0  0  0
  7 22  3  0  0  0  0
  8  9  2  0  0  0  0
  9  5  1  0  0  0  0
 10 12  1  0  0  0  0
 10 11  1  0  0  0  0
 12 13  1  0  0  0  0
 13 14  1  0  0  0  0
 15 13  2  0  0  0  0
 15 16  1  0  0  0  0
 17 15  1  0  0  0  0
 18 17  1  0  0  0  0
 19 20  1  0  0  0  0
 19 17  2  0  0  0  0
 20 12  2  0  0  0  0
 21  8  1  0  0  0  0
 22  9  1  0  0  0  0
 23  2  1  0  0  0  0
 23 26  1  0  0  0  0
 24 23  1  0  0  0  0
 25 23  1  0  0  0  0
M  CHG  1   1  -1
M  END
