1,4,5
 OpenBabel05122313063D

 52 54  0  0  1  0  0  0  0  0999 V2000
    0.6562   -0.4012   -1.7710 O   0  0  0  0  0  1  0  0  0  0  0  0
    1.9500    1.4736    0.2125 N   0  0  0  0  0  0  0  0  0  0  0  0
    0.3591   -0.0569    1.1461 N   0  0  0  0  0  0  0  0  0  0  0  0
    1.0390   -1.2132    0.9427 N   0  0  0  0  0  2  0  0  0  0  0  0
    2.9044    0.6314   -0.2495 N   0  0  0  0  0  2  0  0  0  0  0  0
   -1.4757    0.5241   -1.0997 C   0  0  0  0  0  0  0  0  0  0  0  0
    4.0649    1.3065   -0.2256 C   0  0  1  0  0  3  0  0  0  0  0  0
    0.0421    0.6765   -1.2384 C   0  0  1  0  0  0  0  0  0  0  0  0
    0.2327    1.6386   -1.8055 H   0  0  0  0  0  0  0  0  0  0  0  0
    2.4701    2.7022    0.5338 C   0  0  0  0  0  0  0  0  0  0  0  0
    0.5592    1.0510    0.2250 C   0  0  2  0  0  0  0  0  0  0  0  0
   -0.0309    1.9009    0.6067 H   0  0  0  0  0  0  0  0  0  0  0  0
   -0.4932   -1.5103    2.5730 C   0  0  0  0  0  0  0  0  0  0  0  0
   -1.0977   -1.9733    3.3600 H   0  0  0  0  0  0  0  0  0  0  0  0
   -0.5996   -0.1944    2.1186 C   0  0  2  0  0  3  0  0  0  0  0  0
    0.5423   -2.1109    1.8111 C   0  0  0  0  0  0  0  0  0  0  0  0
    3.8369    2.6215    0.2598 C   0  0  0  0  0  0  0  0  0  0  0  0
    4.5745    3.4188    0.3996 H   0  0  0  0  0  0  0  0  0  0  0  0
    5.3358    0.6526   -0.6643 C   0  0  0  0  0  0  0  0  0  0  0  0
    5.1326   -0.3812   -1.0030 H   0  0  0  0  0  0  0  0  0  0  0  0
    6.0744    0.6114    0.1623 H   0  0  0  0  0  0  0  0  0  0  0  0
    5.8064    1.2098   -1.4997 H   0  0  0  0  0  0  0  0  0  0  0  0
   -1.5455    0.8958    2.4955 C   0  0  0  0  0  0  0  0  0  0  0  0
   -1.0177    1.8360    2.7622 H   0  0  0  0  0  0  0  0  0  0  0  0
   -2.1415    0.5860    3.3732 H   0  0  0  0  0  0  0  0  0  0  0  0
   -2.2466    1.1231    1.6643 H   0  0  0  0  0  0  0  0  0  0  0  0
   -3.3965   -0.9360   -0.7016 C   0  0  0  0  0  0  0  0  0  0  0  0
   -3.7827   -1.9568   -0.5827 H   0  0  0  0  0  0  0  0  0  0  0  0
   -4.2798    0.1787   -0.6237 C   0  0  0  0  0  0  0  0  0  0  0  0
   -2.3437    1.6275   -1.0417 C   0  0  0  0  0  0  0  0  0  0  0  0
   -1.9399    2.6449   -1.1881 H   0  0  0  0  0  0  0  0  0  0  0  0
   -2.0310   -0.7559   -0.9392 C   0  0  0  0  0  0  0  0  0  0  0  0
   -1.3485   -1.6163   -1.0143 H   0  0  0  0  0  0  0  0  0  0  0  0
    1.6396    3.8278    1.0561 C   0  0  0  0  0  0  0  0  0  0  0  0
    0.8804    4.1634    0.3185 H   0  0  0  0  0  0  0  0  0  0  0  0
    2.2865    4.6936    1.2875 H   0  0  0  0  0  0  0  0  0  0  0  0
    1.1012    3.5513    1.9873 H   0  0  0  0  0  0  0  0  0  0  0  0
    1.0944   -3.4992    1.8707 C   0  0  0  0  0  0  0  0  0  0  0  0
    0.2829   -4.2536    1.8424 H   0  0  0  0  0  0  0  0  0  0  0  0
    1.6689   -3.6672    2.8055 H   0  0  0  0  0  0  0  0  0  0  0  0
    1.7719   -3.6766    1.0137 H   0  0  0  0  0  0  0  0  0  0  0  0
   -3.7170    1.4735   -0.8110 C   0  0  0  0  0  0  0  0  0  0  0  0
   -4.3564    2.3656   -0.7904 H   0  0  0  0  0  0  0  0  0  0  0  0
   -5.6362    0.0100   -0.3864 N   0  0  0  0  0  0  0  0  0  0  0  0
   -6.1821   -1.3212   -0.2395 C   0  0  0  0  0  0  0  0  0  0  0  0
   -6.0318   -1.9465   -1.1502 H   0  0  0  0  0  0  0  0  0  0  0  0
   -7.2693   -1.2534   -0.0522 H   0  0  0  0  0  0  0  0  0  0  0  0
   -5.7255   -1.8710    0.6155 H   0  0  0  0  0  0  0  0  0  0  0  0
   -6.5103    1.1606   -0.3490 C   0  0  0  0  0  0  0  0  0  0  0  0
   -6.2189    1.8845    0.4470 H   0  0  0  0  0  0  0  0  0  0  0  0
   -7.5440    0.8306   -0.1388 H   0  0  0  0  0  0  0  0  0  0  0  0
   -6.5218    1.7203   -1.3136 H   0  0  0  0  0  0  0  0  0  0  0  0
  1  8  1  0  0  0  0
  2 11  1  0  0  0  0
  2 10  1  0  0  0  0
  3 15  1  0  0  0  0
  4  3  1  0  0  0  0
  4 16  1  0  0  0  0
  5  7  1  0  0  0  0
  5  2  1  0  0  0  0
  6 30  2  0  0  0  0
  6 32  1  0  0  0  0
  7 19  1  1  0  0  0
  7 17  1  0  0  0  0
  8  9  1  6  0  0  0
  8  6  1  0  0  0  0
  8 11  1  0  0  0  0
 10 34  1  0  0  0  0
 11 12  1  1  0  0  0
 11  3  1  0  0  0  0
 13 14  1  0  0  0  0
 15 23  1  6  0  0  0
 15 13  1  0  0  0  0
 16 38  1  0  0  0  0
 16 13  2  0  0  0  0
 17 18  1  0  0  0  0
 17 10  2  0  0  0  0
 19 21  1  0  0  0  0
 20 19  1  0  0  0  0
 22 19  1  0  0  0  0
 23 24  1  0  0  0  0
 23 25  1  0  0  0  0
 26 23  1  0  0  0  0
 27 29  1  0  0  0  0
 27 28  1  0  0  0  0
 29 44  1  0  0  0  0
 30 42  1  0  0  0  0
 31 30  1  0  0  0  0
 32 27  2  0  0  0  0
 33 32  1  0  0  0  0
 34 36  1  0  0  0  0
 34 37  1  0  0  0  0
 35 34  1  0  0  0  0
 38 40  1  0  0  0  0
 39 38  1  0  0  0  0
 41 38  1  0  0  0  0
 42 43  1  0  0  0  0
 42 29  2  0  0  0  0
 44 49  1  0  0  0  0
 44 45  1  0  0  0  0
 45 47  1  0  0  0  0
 45 48  1  0  0  0  0
 46 45  1  0  0  0  0
 49 51  1  0  0  0  0
 49 50  1  0  0  0  0
 52 49  1  0  0  0  0
M  END
