1,2,5
 OpenBabel05122313063D

 50 51  0  0  0  0  0  0  0  0999 V2000
   -1.0128   -0.2514    0.6308 O   0  5  0  0  0  0  0  0  0  0  0  0
    1.5535    2.7278    0.5959 N   0  0  0  0  0  2  0  0  0  0  0  0
   -0.3118    3.4745   -0.5209 N   0  0  0  0  0  0  0  0  0  0  0  0
   -0.8158    4.1317   -1.1227 H   0  0  0  0  0  0  0  0  0  0  0  0
   -0.8990    2.3021   -0.1571 N   0  0  0  0  0  2  0  0  0  0  0  0
    2.8254    2.8888    1.0250 C   0  0  0  0  0  3  0  0  0  0  0  0
    3.2338    2.0511    1.6066 H   0  0  0  0  0  0  0  0  0  0  0  0
    3.5739    4.0299    0.7398 C   0  0  0  0  0  0  0  0  0  0  0  0
    4.6060    4.1133    1.1050 H   0  0  0  0  0  0  0  0  0  0  0  0
    2.9778    5.0499   -0.0289 C   0  0  0  0  0  0  0  0  0  0  0  0
    3.5396    5.9620   -0.2791 H   0  0  0  0  0  0  0  0  0  0  0  0
    1.6667    4.9002   -0.4758 C   0  0  0  0  0  0  0  0  0  0  0  0
    1.1679    5.6779   -1.0717 H   0  0  0  0  0  0  0  0  0  0  0  0
    0.9786    3.7119   -0.1389 C   0  0  0  0  0  0  0  0  0  0  0  0
   -2.1386    2.0849   -0.5361 C   0  0  0  0  0  3  0  0  0  0  0  0
   -2.6582    2.8962   -1.0885 H   0  0  0  0  0  0  0  0  0  0  0  0
   -2.8856    0.8863   -0.3118 C   0  0  0  0  0  0  0  0  0  0  0  0
   -4.2472    0.8445   -0.7232 C   0  0  0  0  0  0  0  0  0  0  0  0
   -4.6712    1.7492   -1.1830 H   0  0  0  0  0  0  0  0  0  0  0  0
   -5.0209   -0.2971   -0.5496 C   0  0  0  0  0  0  0  0  0  0  0  0
   -4.3891   -1.4227    0.0521 C   0  0  0  0  0  0  0  0  0  0  0  0
   -4.9936   -2.3285    0.1950 H   0  0  0  0  0  0  0  0  0  0  0  0
   -3.0573   -1.4571    0.4707 C   0  0  0  0  0  0  0  0  0  0  0  0
   -2.2703   -0.2672    0.2836 C   0  0  0  0  0  0  0  0  0  0  0  0
   -2.4257   -2.7036    1.1152 C   0  0  0  0  0  0  0  0  0  0  0  0
   -1.9461   -2.3575    2.5461 C   0  0  0  0  0  0  0  0  0  0  0  0
   -1.2009   -1.5409    2.5403 H   0  0  0  0  0  0  0  0  0  0  0  0
   -1.4823   -3.2503    3.0150 H   0  0  0  0  0  0  0  0  0  0  0  0
   -2.8006   -2.0441    3.1800 H   0  0  0  0  0  0  0  0  0  0  0  0
   -1.2306   -3.1866    0.2579 C   0  0  0  0  0  0  0  0  0  0  0  0
   -0.4496   -2.4089    0.1761 H   0  0  0  0  0  0  0  0  0  0  0  0
   -1.5654   -3.4543   -0.7651 H   0  0  0  0  0  0  0  0  0  0  0  0
   -0.7781   -4.0904    0.7166 H   0  0  0  0  0  0  0  0  0  0  0  0
   -3.4326   -3.8628    1.2208 C   0  0  0  0  0  0  0  0  0  0  0  0
   -3.8025   -4.1857    0.2261 H   0  0  0  0  0  0  0  0  0  0  0  0
   -4.3082   -3.5999    1.8491 H   0  0  0  0  0  0  0  0  0  0  0  0
   -2.9383   -4.7368    1.6904 H   0  0  0  0  0  0  0  0  0  0  0  0
   -6.4966   -0.3932   -0.9703 C   0  0  0  0  0  0  0  0  0  0  0  0
   -7.3633   -0.7008    0.2722 C   0  0  0  0  0  0  0  0  0  0  0  0
   -7.2673    0.1030    1.0297 H   0  0  0  0  0  0  0  0  0  0  0  0
   -7.0678   -1.6539    0.7542 H   0  0  0  0  0  0  0  0  0  0  0  0
   -8.4335   -0.7850   -0.0101 H   0  0  0  0  0  0  0  0  0  0  0  0
   -6.6603   -1.5285   -2.0065 C   0  0  0  0  0  0  0  0  0  0  0  0
   -7.7219   -1.6235   -2.3163 H   0  0  0  0  0  0  0  0  0  0  0  0
   -6.3415   -2.5079   -1.5975 H   0  0  0  0  0  0  0  0  0  0  0  0
   -6.0520   -1.3282   -2.9116 H   0  0  0  0  0  0  0  0  0  0  0  0
   -7.0011    0.9155   -1.6012 C   0  0  0  0  0  0  0  0  0  0  0  0
   -6.9318    1.7665   -0.8935 H   0  0  0  0  0  0  0  0  0  0  0  0
   -8.0658    0.8092   -1.8913 H   0  0  0  0  0  0  0  0  0  0  0  0
   -6.4310    1.1776   -2.5156 H   0  0  0  0  0  0  0  0  0  0  0  0
  2  6  1  0  0  0  0
  3  5  1  0  0  0  0
  3 14  1  0  0  0  0
  4  3  1  0  0  0  0
  6  7  1  0  0  0  0
  8  6  1  0  0  0  0
  8  9  1  0  0  0  0
 10  8  2  0  0  0  0
 11 10  1  0  0  0  0
 12 14  2  0  0  0  0
 12 10  1  0  0  0  0
 13 12  1  0  0  0  0
 14  2  1  0  0  0  0
 15 17  1  0  0  0  0
 15  5  1  0  0  0  0
 16 15  1  0  0  0  0
 17 24  1  0  0  0  0
 18 20  1  0  0  0  0
 18 17  2  0  0  0  0
 19 18  1  0  0  0  0
 20 21  2  0  0  0  0
 21 22  1  0  0  0  0
 21 23  1  0  0  0  0
 23 25  1  0  0  0  0
 24 23  2  0  0  0  0
 24  1  1  0  0  0  0
 25 34  1  0  0  0  0
 25 26  1  0  0  0  0
 26 28  1  0  0  0  0
 26 29  1  0  0  0  0
 27 26  1  0  0  0  0
 30 33  1  0  0  0  0
 30 25  1  0  0  0  0
 31 30  1  0  0  0  0
 32 30  1  0  0  0  0
 34 37  1  0  0  0  0
 34 36  1  0  0  0  0
 35 34  1  0  0  0  0
 38 20  1  0  0  0  0
 38 39  1  0  0  0  0
 39 41  1  0  0  0  0
 39 40  1  0  0  0  0
 42 39  1  0  0  0  0
 43 45  1  0  0  0  0
 43 38  1  0  0  0  0
 44 43  1  0  0  0  0
 46 43  1  0  0  0  0
 47 38  1  0  0  0  0
 47 48  1  0  0  0  0
 49 47  1  0  0  0  0
 50 47  1  0  0  0  0
M  CHG  1   1  -1
M  END
