1,2,4
 OpenBabel05122313063D

 33 34  0  0  1  0  0  0  0  0999 V2000
   -2.9267   -0.4207   -0.0029 N   0  0  0  0  0  2  0  0  0  0  0  0
   -0.6886    0.8232   -0.0001 N   0  0  0  0  0  2  0  0  0  0  0  0
    0.5715    1.2714    0.0005 N   0  0  0  0  0  0  0  0  0  0  0  0
    0.9673   -1.0079   -0.0022 O   0  5  0  0  0  0  0  0  0  0  0  0
   -4.0401   -1.1685   -0.0067 C   0  0  0  0  0  3  0  0  0  0  0  0
   -3.8829   -2.2576   -0.0094 H   0  0  0  0  0  0  0  0  0  0  0  0
   -5.3191   -0.5941   -0.0075 C   0  0  0  0  0  0  0  0  0  0  0  0
   -6.2084   -1.2391   -0.0105 H   0  0  0  0  0  0  0  0  0  0  0  0
   -5.4250    0.8053   -0.0046 C   0  0  0  0  0  0  0  0  0  0  0  0
   -6.4128    1.2901   -0.0051 H   0  0  0  0  0  0  0  0  0  0  0  0
   -4.2617    1.5835   -0.0015 C   0  0  0  0  0  0  0  0  0  0  0  0
   -4.3147    2.6806    0.0003 H   0  0  0  0  0  0  0  0  0  0  0  0
   -3.0060    0.9414   -0.0008 C   0  0  0  0  0  0  0  0  0  0  0  0
   -1.7219    1.6422    0.0012 C   0  0  2  0  0  3  0  0  0  0  0  0
   -1.6038    3.1316    0.0039 C   0  0  0  0  0  0  0  0  0  0  0  0
   -2.0905    3.5711    0.8997 H   0  0  0  0  0  0  0  0  0  0  0  0
   -2.0939    3.5748   -0.8881 H   0  0  0  0  0  0  0  0  0  0  0  0
   -0.5344    3.4079    0.0026 H   0  0  0  0  0  0  0  0  0  0  0  0
    1.4019    0.2067   -0.0009 C   0  0  0  0  0  0  0  0  0  0  0  0
    2.8590    0.4477   -0.0011 C   0  0  0  0  0  0  0  0  0  0  0  0
    3.7361   -0.6584   -0.0026 C   0  0  0  0  0  0  0  0  0  0  0  0
    3.2977   -1.6674   -0.0035 H   0  0  0  0  0  0  0  0  0  0  0  0
    5.1289   -0.4815   -0.0031 C   0  0  0  0  0  0  0  0  0  0  0  0
    5.6315    0.8389   -0.0023 C   0  0  0  0  0  0  0  0  0  0  0  0
    6.7217    0.9998   -0.0030 H   0  0  0  0  0  0  0  0  0  0  0  0
    4.7681    1.9453   -0.0008 C   0  0  0  0  0  0  0  0  0  0  0  0
    5.1846    2.9640   -0.0003 H   0  0  0  0  0  0  0  0  0  0  0  0
    3.3809    1.7588   -0.0002 C   0  0  0  0  0  0  0  0  0  0  0  0
    2.6857    2.6092    0.0009 H   0  0  0  0  0  0  0  0  0  0  0  0
    6.0684   -1.6612   -0.0030 C   0  0  0  0  0  0  0  0  0  0  0  0
    5.5169   -2.6204   -0.0192 H   0  0  0  0  0  0  0  0  0  0  0  0
    6.7184   -1.6571    0.8968 H   0  0  0  0  0  0  0  0  0  0  0  0
    6.7417   -1.6394   -0.8851 H   0  0  0  0  0  0  0  0  0  0  0  0
  1 13  1  0  0  0  0
  2  3  1  0  0  0  0
  4 19  1  0  0  0  0
  5  1  1  0  0  0  0
  6  5  1  0  0  0  0
  7  5  1  0  0  0  0
  7  9  2  0  0  0  0
  8  7  1  0  0  0  0
  9 11  1  0  0  0  0
 10  9  1  0  0  0  0
 11 13  2  0  0  0  0
 11 12  1  0  0  0  0
 13 14  1  0  0  0  0
 14  2  1  6  0  0  0
 14 15  1  0  0  0  0
 15 16  1  0  0  0  0
 17 15  1  0  0  0  0
 18 15  1  0  0  0  0
 19  3  2  0  0  0  0
 20 19  1  0  0  0  0
 20 28  1  0  0  0  0
 21 20  2  0  0  0  0
 22 21  1  0  0  0  0
 23 30  1  0  0  0  0
 23 21  1  0  0  0  0
 23 24  2  0  0  0  0
 24 26  1  0  0  0  0
 25 24  1  0  0  0  0
 26 27  1  0  0  0  0
 26 28  2  0  0  0  0
 28 29  1  0  0  0  0
 30 32  1  0  0  0  0
 31 30  1  0  0  0  0
 33 30  1  0  0  0  0
M  CHG  1   4  -1
M  END
