1,9,20
 OpenBabel05122313063D

 30 31  0  0  1  0  0  0  0  0999 V2000
   -0.5553   -0.0002    1.8019 O   0  5  0  0  0  0  0  0  0  0  0  0
    1.9293    0.0002    0.2313 C   0  0  1  0  0  0  0  0  0  0  0  0
    2.9919    0.0005   -0.0901 H   0  0  0  0  0  0  0  0  0  0  0  0
    0.5906   -0.0032    3.7306 O   0  0  0  0  0  0  0  0  0  0  0  0
    1.9129   -0.0004    1.7860 C   0  0  0  0  0  0  0  0  0  0  0  0
    2.4708   -0.8855    2.1585 H   0  0  0  0  0  0  0  0  0  0  0  0
    2.4698    0.8851    2.1591 H   0  0  0  0  0  0  0  0  0  0  0  0
    0.5281   -0.0015    2.4998 C   0  0  0  0  0  0  0  0  0  0  0  0
   -0.0108   -1.4012   -0.5608 N   0  0  0  0  0  2  0  0  0  0  0  0
   -0.1821   -2.6781   -1.0529 C   0  0  0  0  0  0  0  0  0  0  0  0
   -1.1716   -3.0670   -1.3123 H   0  0  0  0  0  0  0  0  0  0  0  0
    1.9747   -2.3779   -0.6630 N   0  0  0  0  0  0  0  0  0  0  0  0
    1.0463   -3.3015   -1.1186 C   0  0  0  0  0  0  0  0  0  0  0  0
    1.3404   -4.3053   -1.4395 H   0  0  0  0  0  0  0  0  0  0  0  0
    1.2945   -1.2313   -0.3399 C   0  0  2  0  0  3  0  0  0  0  0  0
    3.4056   -2.5930   -0.5391 C   0  0  0  0  0  0  0  0  0  0  0  0
    3.7423   -2.4128    0.5010 H   0  0  0  0  0  0  0  0  0  0  0  0
    3.9725   -1.9284   -1.2226 H   0  0  0  0  0  0  0  0  0  0  0  0
    3.6349   -3.6407   -0.8031 H   0  0  0  0  0  0  0  0  0  0  0  0
   -0.0110    1.4017   -0.5602 N   0  0  0  0  0  2  0  0  0  0  0  0
   -0.1826    2.6789   -1.0516 C   0  0  0  0  0  0  0  0  0  0  0  0
   -1.1721    3.0676   -1.3109 H   0  0  0  0  0  0  0  0  0  0  0  0
    1.9742    2.3790   -0.6613 N   0  0  0  0  0  0  0  0  0  0  0  0
    1.0457    3.3026   -1.1167 C   0  0  0  0  0  0  0  0  0  0  0  0
    1.3396    4.3066   -1.4369 H   0  0  0  0  0  0  0  0  0  0  0  0
    1.2942    1.2320   -0.3391 C   0  0  1  0  0  3  0  0  0  0  0  0
    3.4050    2.5944   -0.5373 C   0  0  0  0  0  0  0  0  0  0  0  0
    3.9721    1.9313   -1.2222 H   0  0  0  0  0  0  0  0  0  0  0  0
    3.7419    2.4122    0.5024 H   0  0  0  0  0  0  0  0  0  0  0  0
    3.6340    3.6426   -0.7993 H   0  0  0  0  0  0  0  0  0  0  0  0
  1  8  1  0  0  0  0
  2  3  1  6  0  0  0
  2  5  1  0  0  0  0
  5  6  1  0  0  0  0
  5  7  1  0  0  0  0
  5  8  1  0  0  0  0
  8  4  2  0  0  0  0
  9 15  1  0  0  0  0
 10  9  1  0  0  0  0
 11 10  1  0  0  0  0
 12 16  1  0  0  0  0
 12 15  1  0  0  0  0
 13 10  2  0  0  0  0
 13 12  1  0  0  0  0
 14 13  1  0  0  0  0
 15  2  1  1  0  0  0
 16 17  1  0  0  0  0
 18 16  1  0  0  0  0
 19 16  1  0  0  0  0
 20 26  1  0  0  0  0
 21 20  1  0  0  0  0
 22 21  1  0  0  0  0
 23 27  1  0  0  0  0
 23 26  1  0  0  0  0
 24 21  2  0  0  0  0
 24 23  1  0  0  0  0
 25 24  1  0  0  0  0
 26  2  1  1  0  0  0
 27 29  1  0  0  0  0
 28 27  1  0  0  0  0
 30 27  1  0  0  0  0
M  CHG  1   1  -1
M  END
