1,3,6
 OpenBabel05122313063D

 34 36  0  0  1  0  0  0  0  0999 V2000
    2.6139   -0.2850   -0.3894 N   0  0  0  0  0  2  0  0  0  0  0  0
   -0.7057    3.1760    0.2651 N   0  0  0  0  0  0  0  0  0  0  0  0
    0.0781    0.4414   -0.1580 N   0  0  0  0  0  2  0  0  0  0  0  0
   -1.2314    0.6345   -0.1348 N   0  0  0  0  0  0  0  0  0  0  0  0
   -1.5442    1.6038    0.1176 H   0  0  0  0  0  0  0  0  0  0  0  0
   -1.6187   -1.6143   -0.4730 O   0  0  0  0  0  1  0  0  0  0  0  0
   -4.5880   -1.5484   -0.2292 S   0  0  0  0  0  0  0  0  0  0  0  0
    3.8601   -0.7703   -0.3675 C   0  0  0  0  0  3  0  0  0  0  0  0
    3.9556   -1.8217   -0.6946 H   0  0  0  0  0  0  0  0  0  0  0  0
    4.9584   -0.0035    0.0556 C   0  0  0  0  0  0  0  0  0  0  0  0
    5.9710   -0.4316    0.0536 H   0  0  0  0  0  0  0  0  0  0  0  0
    4.7129    1.2980    0.5117 C   0  0  0  0  0  0  0  0  0  0  0  0
    5.5330    1.9187    0.9034 H   0  0  0  0  0  0  0  0  0  0  0  0
    3.4060    1.8061    0.4804 C   0  0  0  0  0  0  0  0  0  0  0  0
    3.1961    2.8105    0.8720 H   0  0  0  0  0  0  0  0  0  0  0  0
    2.3670    0.9899   -0.0170 C   0  0  0  0  0  0  0  0  0  0  0  0
    0.9416    1.4287   -0.0950 C   0  0  1  0  0  3  0  0  0  0  0  0
   -1.1184    4.4501    0.2102 C   0  0  0  0  0  0  0  0  0  0  0  0
   -2.1469    4.6440    0.5607 H   0  0  0  0  0  0  0  0  0  0  0  0
   -0.3187    5.4971   -0.2680 C   0  0  0  0  0  0  0  0  0  0  0  0
   -0.7006    6.5278   -0.2853 H   0  0  0  0  0  0  0  0  0  0  0  0
    0.9608    5.1789   -0.7481 C   0  0  0  0  0  0  0  0  0  0  0  0
    1.6103    5.9590   -1.1731 H   0  0  0  0  0  0  0  0  0  0  0  0
    1.4025    3.8534   -0.6922 C   0  0  0  0  0  0  0  0  0  0  0  0
    2.3866    3.5784   -1.0930 H   0  0  0  0  0  0  0  0  0  0  0  0
    0.5525    2.8606   -0.1454 C   0  0  0  0  0  0  0  0  0  0  0  0
   -2.0621   -0.4794   -0.2622 C   0  0  2  0  0  3  0  0  0  0  0  0
   -3.4946   -0.1960   -0.1349 C   0  0  0  0  0  0  0  0  0  0  0  0
   -4.1817    1.0030    0.0549 C   0  0  0  0  0  0  0  0  0  0  0  0
   -3.6899    1.9825    0.1383 H   0  0  0  0  0  0  0  0  0  0  0  0
   -5.5877    0.8187    0.1252 C   0  0  0  0  0  0  0  0  0  0  0  0
   -6.3126    1.6305    0.2725 H   0  0  0  0  0  0  0  0  0  0  0  0
   -5.9479   -0.5147   -0.0132 C   0  0  0  0  0  0  0  0  0  0  0  0
   -6.9582   -0.9426    0.0040 H   0  0  0  0  0  0  0  0  0  0  0  0
  1  8  1  0  0  0  0
  1 16  1  0  0  0  0
  3  4  1  0  0  0  0
  4  5  1  0  0  0  0
  7 28  1  0  0  0  0
  7 33  1  0  0  0  0
  8 10  1  0  0  0  0
  9  8  1  0  0  0  0
 10 12  2  0  0  0  0
 11 10  1  0  0  0  0
 12 13  1  0  0  0  0
 14 12  1  0  0  0  0
 14 15  1  0  0  0  0
 16 14  2  0  0  0  0
 17  3  1  6  0  0  0
 17 16  1  0  0  0  0
 18  2  1  0  0  0  0
 18 19  1  0  0  0  0
 20 18  2  0  0  0  0
 21 20  1  0  0  0  0
 22 24  2  0  0  0  0
 22 20  1  0  0  0  0
 23 22  1  0  0  0  0
 24 26  1  0  0  0  0
 25 24  1  0  0  0  0
 26 17  1  0  0  0  0
 26  2  2  0  0  0  0
 27  6  1  6  0  0  0
 27 28  1  0  0  0  0
 27  4  1  0  0  0  0
 28 29  2  0  0  0  0
 29 31  1  0  0  0  0
 29 30  1  0  0  0  0
 31 32  1  0  0  0  0
 33 34  1  0  0  0  0
 33 31  2  0  0  0  0
M  END
