1,2,3
 OpenBabel05122313063D

 22 22  0  0  0  0  0  0  0  0999 V2000
   -0.5782    0.5082   -1.2848 O   0  5  0  0  0  0  0  0  0  0  0  0
   -1.9889    0.2557    1.0191 N   0  0  0  0  0  2  0  0  0  0  0  0
   -1.1062   -2.2091    1.4648 N   0  0  0  0  0  0  0  0  0  0  0  0
   -0.5824    1.7779   -1.0375 C   0  0  0  0  0  0  0  0  0  0  0  0
    0.2238    2.6495   -1.8826 C   0  0  0  0  0  0  0  0  0  0  0  0
    0.1241    3.9713   -1.6041 C   0  0  0  0  0  3  0  0  0  0  0  0
   -0.6215    4.6391   -0.6564 C   0  0  0  0  0  0  0  0  0  0  0  0
   -1.2650    3.7854    0.2613 C   0  0  0  0  0  0  0  0  0  0  0  0
   -1.2695    2.3811    0.0884 C   0  0  0  0  0  0  0  0  0  0  0  0
   -2.0170    1.5617    1.0079 C   0  0  0  0  0  3  0  0  0  0  0  0
   -2.7200   -0.4937    2.0346 C   0  0  0  0  0  0  0  0  0  0  0  0
   -1.7291   -1.4995    2.6141 C   0  0  0  0  0  0  0  0  0  0  0  0
    0.9512    2.1777   -2.5600 H   0  0  0  0  0  0  0  0  0  0  0  0
   -0.7971    5.7257   -0.6524 H   0  0  0  0  0  0  0  0  0  0  0  0
   -1.8591    4.2243    1.0803 H   0  0  0  0  0  0  0  0  0  0  0  0
   -2.6426    2.0852    1.7587 H   0  0  0  0  0  0  0  0  0  0  0  0
   -3.5788   -1.0279    1.5655 H   0  0  0  0  0  0  0  0  0  0  0  0
   -3.1391    0.1642    2.8255 H   0  0  0  0  0  0  0  0  0  0  0  0
   -2.2102   -2.1978    3.3294 H   0  0  0  0  0  0  0  0  0  0  0  0
   -0.9199   -0.9523    3.1344 H   0  0  0  0  0  0  0  0  0  0  0  0
   -1.6823   -3.0183    1.1854 H   0  0  0  0  0  0  0  0  0  0  0  0
   -0.1902   -2.5954    1.7366 H   0  0  0  0  0  0  0  0  0  0  0  0
  1  4  1  0  0  0  0
  2 11  1  0  0  0  0
  3 22  1  0  0  0  0
  3 12  1  0  0  0  0
  4  9  1  0  0  0  0
  5  6  1  0  0  0  0
  5  4  2  0  0  0  0
  6  7  2  0  0  0  0
  7 14  1  0  0  0  0
  7  8  1  0  0  0  0
  8 15  1  0  0  0  0
  9  8  2  0  0  0  0
  9 10  1  0  0  0  0
 10  2  1  0  0  0  0
 10 16  1  0  0  0  0
 11 12  1  0  0  0  0
 11 18  1  0  0  0  0
 12 20  1  0  0  0  0
 12 19  1  0  0  0  0
 13  5  1  0  0  0  0
 17 11  1  0  0  0  0
 21  3  1  0  0  0  0
M  CHG  1   1  -1
M  END
