1,2,3
 OpenBabel05122313063D

 48 50  0  0  1  0  0  0  0  0999 V2000
   -0.8630   -0.7929    1.5481 N   0  0  0  0  0  0  0  0  0  0  0  0
   -2.7971   -1.4315   -0.5280 N   0  0  0  0  0  0  0  0  0  0  0  0
    0.0682   -0.3400   -0.9271 O   0  0  0  0  0  1  0  0  0  0  0  0
   -1.9562   -2.4775    0.0620 C   0  0  0  0  0  0  0  0  0  0  0  0
   -1.4667   -2.1545    1.4859 C   0  0  1  0  0  0  0  0  0  0  0  0
   -0.3186   -3.1021    1.8753 C   0  0  0  0  0  0  0  0  0  0  0  0
    0.8890   -2.4392    1.1984 C   0  0  0  0  0  0  0  0  0  0  0  0
    0.6210   -0.9269    1.3351 C   0  0  1  0  0  0  0  0  0  0  0  0
    1.0132   -0.0906    0.0566 C   0  0  0  0  0  0  0  0  0  0  0  0
    2.4217   -0.5184   -0.3924 C   0  0  0  0  0  0  0  0  0  0  0  0
    3.5561   -0.3216    0.4199 C   0  0  0  0  0  0  0  0  0  0  0  0
    4.8202   -0.7593   -0.0015 C   0  0  0  0  0  0  0  0  0  0  0  0
    4.9684   -1.3934   -1.2468 C   0  0  0  0  0  0  0  0  0  0  0  0
    3.8439   -1.5819   -2.0651 C   0  0  0  0  0  0  0  0  0  0  0  0
    2.5785   -1.1473   -1.6391 C   0  0  0  0  0  0  0  0  0  0  0  0
    1.0476    1.4308    0.3782 C   0  0  0  0  0  0  0  0  0  0  0  0
    0.8828    2.3065   -0.7167 C   0  0  0  0  0  0  0  0  0  0  0  0
    0.8680    3.6941   -0.5390 C   0  0  0  0  0  0  0  0  0  0  0  0
    1.0104    4.2436    0.7472 C   0  0  0  0  0  0  0  0  0  0  0  0
    1.1815    3.3885    1.8438 C   0  0  0  0  0  0  0  0  0  0  0  0
    1.2067    1.9943    1.6587 C   0  0  0  0  0  0  0  0  0  0  0  0
   -2.8818   -1.5677   -1.9860 C   0  0  0  0  0  0  0  0  0  0  0  0
   -4.1189   -1.3281    0.0876 C   0  0  0  0  0  0  0  0  0  0  0  0
   -1.0687   -2.5607   -0.5938 H   0  0  0  0  0  0  0  0  0  0  0  0
   -2.4807   -3.4652    0.0754 H   0  0  0  0  0  0  0  0  0  0  0  0
   -1.0444   -0.3795    2.4685 H   0  0  0  0  0  0  0  0  0  0  0  0
   -2.3158   -2.2000    2.1986 H   0  0  0  0  0  0  0  0  0  0  0  0
   -0.4916   -4.1478    1.5490 H   0  0  0  0  0  0  0  0  0  0  0  0
   -0.1990   -3.1122    2.9790 H   0  0  0  0  0  0  0  0  0  0  0  0
    0.9421   -2.7099    0.1251 H   0  0  0  0  0  0  0  0  0  0  0  0
    1.8571   -2.7258    1.6489 H   0  0  0  0  0  0  0  0  0  0  0  0
    1.1417   -0.5478    2.2364 H   0  0  0  0  0  0  0  0  0  0  0  0
    3.4549    0.1959    1.3869 H   0  0  0  0  0  0  0  0  0  0  0  0
    5.6985   -0.5967    0.6425 H   0  0  0  0  0  0  0  0  0  0  0  0
    5.9614   -1.7323   -1.5801 H   0  0  0  0  0  0  0  0  0  0  0  0
    3.9538   -2.0702   -3.0463 H   0  0  0  0  0  0  0  0  0  0  0  0
    1.6764   -1.2723   -2.2556 H   0  0  0  0  0  0  0  0  0  0  0  0
    0.7424    1.8584   -1.7113 H   0  0  0  0  0  0  0  0  0  0  0  0
    0.7351    4.3555   -1.4092 H   0  0  0  0  0  0  0  0  0  0  0  0
    0.9865    5.3344    0.8924 H   0  0  0  0  0  0  0  0  0  0  0  0
    1.2939    3.8051    2.8569 H   0  0  0  0  0  0  0  0  0  0  0  0
    1.3464    1.3522    2.5416 H   0  0  0  0  0  0  0  0  0  0  0  0
   -3.3830   -2.5173   -2.2933 H   0  0  0  0  0  0  0  0  0  0  0  0
   -3.4567   -0.7170   -2.4024 H   0  0  0  0  0  0  0  0  0  0  0  0
   -1.8583   -1.5412   -2.4082 H   0  0  0  0  0  0  0  0  0  0  0  0
   -4.7245   -2.2553   -0.0607 H   0  0  0  0  0  0  0  0  0  0  0  0
   -4.0240   -1.1400    1.1744 H   0  0  0  0  0  0  0  0  0  0  0  0
   -4.6640   -0.4702   -0.3507 H   0  0  0  0  0  0  0  0  0  0  0  0
  1 26  1  0  0  0  0
  2  4  1  0  0  0  0
  2 23  1  0  0  0  0
  3  9  1  0  0  0  0
  4 25  1  0  0  0  0
  4  5  1  0  0  0  0
  5  1  1  0  0  0  0
  5  6  1  0  0  0  0
  5 27  1  1  0  0  0
  6 29  1  0  0  0  0
  7  8  1  0  0  0  0
  7 31  1  0  0  0  0
  7  6  1  0  0  0  0
  8  1  1  0  0  0  0
  8 32  1  1  0  0  0
  9 16  1  0  0  0  0
  9  8  1  0  0  0  0
 10  9  1  0  0  0  0
 10 11  1  0  0  0  0
 11 33  1  0  0  0  0
 12 11  2  0  0  0  0
 12 34  1  0  0  0  0
 13 12  1  0  0  0  0
 14 15  1  0  0  0  0
 14 13  2  0  0  0  0
 15 10  2  0  0  0  0
 16 21  1  0  0  0  0
 17 18  1  0  0  0  0
 17 16  2  0  0  0  0
 18 19  2  0  0  0  0
 19 40  1  0  0  0  0
 19 20  1  0  0  0  0
 20 41  1  0  0  0  0
 21 20  2  0  0  0  0
 21 42  1  0  0  0  0
 22  2  1  0  0  0  0
 23 47  1  0  0  0  0
 24  4  1  0  0  0  0
 28  6  1  0  0  0  0
 30  7  1  0  0  0  0
 35 13  1  0  0  0  0
 36 14  1  0  0  0  0
 37 15  1  0  0  0  0
 38 17  1  0  0  0  0
 39 18  1  0  0  0  0
 43 22  1  0  0  0  0
 44 22  1  0  0  0  0
 45 22  1  0  0  0  0
 46 23  1  0  0  0  0
 48 23  1  0  0  0  0
M  END
