1,3,4
 OpenBabel05122313063D

 26 26  0  0  0  0  0  0  0  0999 V2000
   -1.1585   -0.7755    0.1249 O   0  5  0  0  0  0  0  0  0  0  0  0
   -6.6061   -1.7317   -0.0282 O   0  0  0  0  0  0  0  0  0  0  0  0
   -1.6916    1.9426    0.0145 N   0  0  0  0  0  2  0  0  0  0  0  0
    0.7989    2.3228    0.1164 N   0  0  0  0  0  2  0  0  0  0  0  0
   -3.1337    5.1460   -0.0959 N   0  0  0  0  0  0  0  0  0  0  0  0
    1.2847    5.7677    0.0877 N   0  0  0  0  0  0  0  0  0  0  0  0
   -2.4686   -0.9091    0.0885 C   0  0  0  0  0  0  0  0  0  0  0  0
   -3.0011   -2.2316    0.1276 C   0  0  0  0  0  0  0  0  0  0  0  0
   -2.2831   -3.0620    0.1944 H   0  0  0  0  0  0  0  0  0  0  0  0
   -4.3667   -2.4634    0.0883 C   0  0  0  0  0  0  0  0  0  0  0  0
   -4.7731   -3.4851    0.1195 H   0  0  0  0  0  0  0  0  0  0  0  0
   -5.2872   -1.3802    0.0065 C   0  0  0  0  0  0  0  0  0  0  0  0
   -4.8008   -0.0762   -0.0308 C   0  0  0  0  0  3  0  0  0  0  0  0
   -5.4808    0.7846   -0.0911 H   0  0  0  0  0  0  0  0  0  0  0  0
   -3.3943    0.1873    0.0096 C   0  0  0  0  0  0  0  0  0  0  0  0
   -2.9544    1.5423   -0.0228 C   0  0  0  0  0  0  0  0  0  0  0  0
   -3.7308    2.3297   -0.0772 H   0  0  0  0  0  0  0  0  0  0  0  0
   -1.3237    3.2922    0.0080 C   0  0  0  0  0  0  0  0  0  0  0  0
    0.0732    3.4614    0.0663 C   0  0  0  0  0  0  0  0  0  0  0  0
   -7.5605   -0.6936   -0.1085 C   0  0  0  0  0  0  0  0  0  0  0  0
   -8.5548   -1.1775   -0.1258 H   0  0  0  0  0  0  0  0  0  0  0  0
   -7.5064   -0.0096    0.7693 H   0  0  0  0  0  0  0  0  0  0  0  0
   -7.4377   -0.0862   -1.0345 H   0  0  0  0  0  0  0  0  0  0  0  0
   -2.2837    4.3305   -0.0484 C   0  0  0  0  0  0  0  0  0  0  0  0
    0.7116    4.7417    0.0785 C   0  0  0  0  0  0  0  0  0  0  0  0
    1.8151    2.4238    0.1909 H   0  0  0  0  0  0  0  0  0  0  0  0
  2 12  1  0  0  0  0
  4 26  1  0  0  0  0
  5 24  3  0  0  0  0
  7  1  1  0  0  0  0
  7  8  2  0  0  0  0
  8  9  1  0  0  0  0
 10 11  1  0  0  0  0
 10  8  1  0  0  0  0
 12 10  2  0  0  0  0
 13 12  1  0  0  0  0
 13 15  1  0  0  0  0
 14 13  1  0  0  0  0
 15  7  1  0  0  0  0
 16 15  2  0  0  0  0
 16  3  1  0  0  0  0
 17 16  1  0  0  0  0
 18  3  1  0  0  0  0
 18 19  2  0  0  0  0
 19 25  1  0  0  0  0
 19  4  1  0  0  0  0
 20  2  1  0  0  0  0
 20 22  1  0  0  0  0
 21 20  1  0  0  0  0
 23 20  1  0  0  0  0
 24 18  1  0  0  0  0
 25  6  3  0  0  0  0
M  CHG  1   1  -1
M  END
