1,2,3
 OpenBabel05122313063D

 28 29  0  0  0  0  0  0  0  0999 V2000
   -0.7347   -1.0867    0.0002 O   0  5  0  0  0  0  0  0  0  0  0  0
    0.6986    0.9151    0.0011 N   0  0  0  0  0  2  0  0  0  0  0  0
    3.0796   -0.0712   -0.0031 N   0  0  0  0  0  2  0  0  0  0  0  0
   -6.9400    0.2810   -0.0029 O   0  0  0  0  0  0  0  0  0  0  0  0
   -7.2514    1.2058   -0.0026 H   0  0  0  0  0  0  0  0  0  0  0  0
   -0.5936    1.2266    0.0017 N   0  0  0  0  0  0  0  0  0  0  0  0
   -1.3046    0.0694    0.0007 C   0  0  0  0  0  0  0  0  0  0  0  0
   -2.7698    0.1535   -0.0001 C   0  0  0  0  0  0  0  0  0  0  0  0
    2.9971    1.2928    0.0006 C   0  0  0  0  0  0  0  0  0  0  0  0
    1.6482    1.8208    0.0029 C   0  0  0  0  0  0  0  0  0  0  0  0
    1.4249    2.9012    0.0055 H   0  0  0  0  0  0  0  0  0  0  0  0
   -5.5852    0.2775   -0.0020 C   0  0  0  0  0  0  0  0  0  0  0  0
   -3.5418   -1.0325   -0.0013 C   0  0  0  0  0  0  0  0  0  0  0  0
   -3.0162   -1.9981   -0.0015 H   0  0  0  0  0  0  0  0  0  0  0  0
    4.2761   -0.6780   -0.0071 C   0  0  0  0  0  0  0  0  0  0  0  0
    4.2532   -1.7782   -0.0107 H   0  0  0  0  0  0  0  0  0  0  0  0
    5.4758    0.0471   -0.0069 C   0  0  0  0  0  0  0  0  0  0  0  0
    6.4366   -0.4857   -0.0101 H   0  0  0  0  0  0  0  0  0  0  0  0
    4.1660    2.0833    0.0011 C   0  0  0  0  0  0  0  0  0  0  0  0
    4.0790    3.1792    0.0042 H   0  0  0  0  0  0  0  0  0  0  0  0
   -4.8223    1.4671   -0.0008 C   0  0  0  0  0  0  0  0  0  0  0  0
   -5.3343    2.4437   -0.0005 H   0  0  0  0  0  0  0  0  0  0  0  0
   -4.9333   -0.9761   -0.0023 C   0  0  0  0  0  0  0  0  0  0  0  0
   -5.5463   -1.8886   -0.0032 H   0  0  0  0  0  0  0  0  0  0  0  0
    5.4130    1.4506   -0.0025 C   0  0  0  0  0  0  0  0  0  0  0  0
    6.3361    2.0496   -0.0021 H   0  0  0  0  0  0  0  0  0  0  0  0
   -3.4290    1.4042    0.0002 C   0  0  0  0  0  0  0  0  0  0  0  0
   -2.8215    2.3198    0.0012 H   0  0  0  0  0  0  0  0  0  0  0  0
  1  7  1  0  0  0  0
  2  6  1  0  0  0  0
  2 10  1  0  0  0  0
  3  9  1  0  0  0  0
  4  5  1  0  0  0  0
  4 12  1  0  0  0  0
  7  6  2  0  0  0  0
  8 27  1  0  0  0  0
  8  7  1  0  0  0  0
  9 19  1  0  0  0  0
  9 10  2  0  0  0  0
 10 11  1  0  0  0  0
 12 21  1  0  0  0  0
 13  8  2  0  0  0  0
 14 13  1  0  0  0  0
 15 17  2  0  0  0  0
 15  3  1  0  0  0  0
 16 15  1  0  0  0  0
 17 25  1  0  0  0  0
 18 17  1  0  0  0  0
 19 20  1  0  0  0  0
 21 22  1  0  0  0  0
 21 27  2  0  0  0  0
 23 12  2  0  0  0  0
 23 13  1  0  0  0  0
 24 23  1  0  0  0  0
 25 26  1  0  0  0  0
 25 19  2  0  0  0  0
 27 28  1  0  0  0  0
M  CHG  1   1  -1
M  END
