1,2,3
 OpenBabel05122313063D

 53 56  0  0  0  0  0  0  0  0999 V2000
   -1.6441   -0.2914   -0.2302 O   0  5  0  0  0  0  0  0  0  0  0  0
   -0.0801    2.1237   -0.0124 N   0  0  0  0  0  2  0  0  0  0  0  0
    2.1720    0.7703    0.0431 N   0  0  0  0  0  2  0  0  0  0  0  0
   -2.6350    0.5088    0.0484 C   0  0  0  0  0  0  0  0  0  0  0  0
   -2.5451    1.9509    0.1902 C   0  0  0  0  0  0  0  0  0  0  0  0
   -3.7265    2.6695    0.5416 C   0  0  0  0  0  0  0  0  0  0  0  0
   -3.6634    3.7478    0.7411 H   0  0  0  0  0  0  0  0  0  0  0  0
   -4.9508    2.0415    0.7069 C   0  0  0  0  0  0  0  0  0  0  0  0
   -5.8341    2.6207    1.0116 H   0  0  0  0  0  0  0  0  0  0  0  0
   -5.0453    0.6488    0.5110 C   0  0  0  0  0  0  0  0  0  0  0  0
   -6.0128    0.1456    0.6585 H   0  0  0  0  0  0  0  0  0  0  0  0
   -3.9329   -0.1301    0.1820 C   0  0  0  0  0  0  0  0  0  0  0  0
   -4.0956   -1.5929   -0.0364 C   0  0  0  0  0  0  0  0  0  0  0  0
   -5.2632   -2.0670   -0.6814 C   0  0  0  0  0  0  0  0  0  0  0  0
   -5.9972   -1.3421   -1.0658 H   0  0  0  0  0  0  0  0  0  0  0  0
   -5.4858   -3.4372   -0.8712 C   0  0  0  0  0  0  0  0  0  0  0  0
   -6.3985   -3.7753   -1.3859 H   0  0  0  0  0  0  0  0  0  0  0  0
   -4.5401   -4.3718   -0.4218 C   0  0  0  0  0  0  0  0  0  0  0  0
   -4.7073   -5.4491   -0.5752 H   0  0  0  0  0  0  0  0  0  0  0  0
   -3.3729   -3.9177    0.2119 C   0  0  0  0  0  0  0  0  0  0  0  0
   -2.6152   -4.6369    0.5585 H   0  0  0  0  0  0  0  0  0  0  0  0
   -3.1462   -2.5479    0.4010 C   0  0  0  0  0  0  0  0  0  0  0  0
   -2.2164   -2.2197    0.8806 H   0  0  0  0  0  0  0  0  0  0  0  0
   -1.3118    2.7157   -0.0119 C   0  0  0  0  0  0  0  0  0  0  0  0
   -1.3471    4.1297   -0.2111 C   0  0  0  0  0  0  0  0  0  0  0  0
   -2.3200    4.6252   -0.3084 H   0  0  0  0  0  0  0  0  0  0  0  0
   -0.1846    4.8892   -0.3105 C   0  0  0  0  0  0  0  0  0  0  0  0
   -0.2495    5.9764   -0.4628 H   0  0  0  0  0  0  0  0  0  0  0  0
    1.0650    4.2531   -0.2245 C   0  0  0  0  0  0  0  0  0  0  0  0
    2.0103    4.8103   -0.2806 H   0  0  0  0  0  0  0  0  0  0  0  0
    1.0777    2.8617   -0.0934 C   0  0  0  0  0  0  0  0  0  0  0  0
    2.2921    2.0739   -0.0287 C   0  0  0  0  0  0  0  0  0  0  0  0
    3.2868    2.5524   -0.0312 H   0  0  0  0  0  0  0  0  0  0  0  0
    3.3360   -0.0577    0.0622 C   0  0  0  0  0  0  0  0  0  0  0  0
    3.7148   -0.6772    1.2770 C   0  0  0  0  0  0  0  0  0  0  0  0
    4.8653   -1.4799    1.2644 C   0  0  0  0  0  0  0  0  0  0  0  0
    5.1791   -1.9601    2.2054 H   0  0  0  0  0  0  0  0  0  0  0  0
    5.6117   -1.7042    0.0912 C   0  0  0  0  0  0  0  0  0  0  0  0
    5.1742   -1.1001   -1.1002 C   0  0  0  0  0  0  0  0  0  0  0  0
    5.7264   -1.2868   -2.0352 H   0  0  0  0  0  0  0  0  0  0  0  0
    4.0373   -0.2738   -1.1457 C   0  0  0  0  0  0  0  0  0  0  0  0
    2.8827   -0.5087    2.5181 C   0  0  0  0  0  0  0  0  0  0  0  0
    2.6768    0.5567    2.7478 H   0  0  0  0  0  0  0  0  0  0  0  0
    3.3765   -0.9654    3.3961 H   0  0  0  0  0  0  0  0  0  0  0  0
    1.9001   -1.0058    2.3646 H   0  0  0  0  0  0  0  0  0  0  0  0
    6.8292   -2.5932    0.1176 C   0  0  0  0  0  0  0  0  0  0  0  0
    7.5634   -2.2515    0.8763 H   0  0  0  0  0  0  0  0  0  0  0  0
    7.3394   -2.6190   -0.8644 H   0  0  0  0  0  0  0  0  0  0  0  0
    6.5559   -3.6359    0.3838 H   0  0  0  0  0  0  0  0  0  0  0  0
    3.5414    0.3045   -2.4465 C   0  0  0  0  0  0  0  0  0  0  0  0
    4.1321   -0.0806   -3.2985 H   0  0  0  0  0  0  0  0  0  0  0  0
    3.6000    1.4126   -2.4735 H   0  0  0  0  0  0  0  0  0  0  0  0
    2.4767    0.0345   -2.6108 H   0  0  0  0  0  0  0  0  0  0  0  0
  1  4  1  0  0  0  0
  2 24  1  0  0  0  0
  3 34  1  0  0  0  0
  4 12  2  0  0  0  0
  4  5  1  0  0  0  0
  5  6  2  0  0  0  0
  6  8  1  0  0  0  0
  6  7  1  0  0  0  0
  8  9  1  0  0  0  0
 10 11  1  0  0  0  0
 10  8  2  0  0  0  0
 12 10  1  0  0  0  0
 13 12  1  0  0  0  0
 13 22  1  0  0  0  0
 14 13  2  0  0  0  0
 15 14  1  0  0  0  0
 16 14  1  0  0  0  0
 16 18  2  0  0  0  0
 17 16  1  0  0  0  0
 18 20  1  0  0  0  0
 19 18  1  0  0  0  0
 20 22  2  0  0  0  0
 20 21  1  0  0  0  0
 22 23  1  0  0  0  0
 24  5  1  0  0  0  0
 25 24  2  0  0  0  0
 26 25  1  0  0  0  0
 27 29  2  0  0  0  0
 27 25  1  0  0  0  0
 28 27  1  0  0  0  0
 29 31  1  0  0  0  0
 30 29  1  0  0  0  0
 31 32  2  0  0  0  0
 31  2  1  0  0  0  0
 32  3  1  0  0  0  0
 33 32  1  0  0  0  0
 34 35  1  0  0  0  0
 35 42  1  0  0  0  0
 36 35  2  0  0  0  0
 36 37  1  0  0  0  0
 38 46  1  0  0  0  0
 38 36  1  0  0  0  0
 39 38  2  0  0  0  0
 40 39  1  0  0  0  0
 41 39  1  0  0  0  0
 41 34  2  0  0  0  0
 42 43  1  0  0  0  0
 42 44  1  0  0  0  0
 45 42  1  0  0  0  0
 46 49  1  0  0  0  0
 46 47  1  0  0  0  0
 48 46  1  0  0  0  0
 50 41  1  0  0  0  0
 51 50  1  0  0  0  0
 52 50  1  0  0  0  0
 53 50  1  0  0  0  0
M  CHG  1   1  -1
M  END
