1,3,4
 OpenBabel05122313063D

 25 25  0  0  0  0  0  0  0  0999 V2000
   -0.4731   -1.0999   -1.2565 O   0  5  0  0  0  0  0  0  0  0  0  0
   -0.4979   -3.1802   -0.3720 O   0  0  0  0  0  0  0  0  0  0  0  0
    0.2856    0.8428    1.6551 N   0  0  0  0  0  0  0  0  0  0  0  0
   -2.2396    0.4943    0.6621 N   0  0  0  0  0  2  0  0  0  0  0  0
   -2.4869   -2.0786   -0.6860 N   0  0  0  0  0  0  0  0  0  0  0  0
   -0.7887    0.7160    2.5249 C   0  0  0  0  0  3  0  0  0  0  0  0
   -0.3377    0.8397    3.8632 C   0  0  0  0  0  0  0  0  0  0  0  0
    1.0528    1.0544    3.7896 C   0  0  0  0  0  0  0  0  0  0  0  0
    1.3889    1.0411    2.4137 C   0  0  0  0  0  0  0  0  0  0  0  0
   -2.0785    0.4718    1.9612 C   0  0  0  0  0  3  0  0  0  0  0  0
   -3.4851    0.0969    0.0502 C   0  0  0  0  0  0  0  0  0  0  0  0
   -3.2101   -0.8972   -1.0979 C   0  0  0  0  0  0  0  0  0  0  0  0
   -3.2346   -3.1565   -0.0737 C   0  0  0  0  0  0  0  0  0  0  0  0
   -1.0912   -2.1614   -0.7458 C   0  0  0  0  0  0  0  0  0  0  0  0
   -0.9589    0.7819    4.7656 H   0  0  0  0  0  0  0  0  0  0  0  0
    1.7488    1.1892    4.6264 H   0  0  0  0  0  0  0  0  0  0  0  0
    2.3815    1.1354    1.9514 H   0  0  0  0  0  0  0  0  0  0  0  0
   -2.9287    0.2433    2.6411 H   0  0  0  0  0  0  0  0  0  0  0  0
   -4.1860   -0.3496    0.7961 H   0  0  0  0  0  0  0  0  0  0  0  0
   -4.0086    0.9825   -0.3859 H   0  0  0  0  0  0  0  0  0  0  0  0
   -4.1789   -1.1979   -1.5562 H   0  0  0  0  0  0  0  0  0  0  0  0
   -2.6136   -0.3892   -1.8814 H   0  0  0  0  0  0  0  0  0  0  0  0
   -4.0322   -3.5294   -0.7548 H   0  0  0  0  0  0  0  0  0  0  0  0
   -3.7178   -2.8465    0.8815 H   0  0  0  0  0  0  0  0  0  0  0  0
   -2.5242   -3.9747    0.1418 H   0  0  0  0  0  0  0  0  0  0  0  0
  1 14  1  0  0  0  0
  3  9  2  0  0  0  0
  3  6  1  0  0  0  0
  4 10  1  0  0  0  0
  5 13  1  0  0  0  0
  6  7  1  0  0  0  0
  7 15  1  0  0  0  0
  8  7  2  0  0  0  0
  8 16  1  0  0  0  0
  9  8  1  0  0  0  0
 10  6  1  0  0  0  0
 10 18  1  0  0  0  0
 11  4  1  0  0  0  0
 11 19  1  0  0  0  0
 12  5  1  0  0  0  0
 12 11  1  0  0  0  0
 13 25  1  0  0  0  0
 13 24  1  0  0  0  0
 14  5  1  0  0  0  0
 14  2  2  0  0  0  0
 17  9  1  0  0  0  0
 20 11  1  0  0  0  0
 21 12  1  0  0  0  0
 22 12  1  0  0  0  0
 23 13  1  0  0  0  0
M  CHG  1   1  -1
M  END
