1,2,4
 OpenBabel05122313063D

 38 39  0  0  1  0  0  0  0  0999 V2000
   -2.7815   -0.3241    0.3191 O   0  5  0  0  0  0  0  0  0  0  0  0
   -0.1203   -1.1749   -0.5539 N   0  0  0  0  0  2  0  0  0  0  0  0
    1.0815    1.3396   -0.1985 N   0  0  0  0  0  0  0  0  0  0  0  0
   -0.0801    1.3947    0.5076 N   0  0  0  0  0  2  0  0  0  0  0  0
   -4.5305   -0.5952   -1.2455 C   0  0  0  0  0  0  0  0  0  0  0  0
   -5.1713   -1.0694   -0.4745 H   0  0  0  0  0  0  0  0  0  0  0  0
   -4.7668   -1.0266   -2.2358 H   0  0  0  0  0  0  0  0  0  0  0  0
   -4.7905    0.4840   -1.2502 H   0  0  0  0  0  0  0  0  0  0  0  0
   -3.0747   -0.7561   -0.8525 C   0  0  0  0  0  0  0  0  0  0  0  0
   -2.1819   -1.3183   -1.7957 C   0  0  0  0  0  0  0  0  0  0  0  0
   -2.6150   -1.6046   -2.7635 H   0  0  0  0  0  0  0  0  0  0  0  0
   -0.7694   -1.4261   -1.6878 C   0  0  1  0  0  3  0  0  0  0  0  0
    0.0112   -1.7880   -2.9355 C   0  0  0  0  0  0  0  0  0  0  0  0
    0.7954   -1.0281   -3.1330 H   0  0  0  0  0  0  0  0  0  0  0  0
   -0.6484   -1.8557   -3.8190 H   0  0  0  0  0  0  0  0  0  0  0  0
    0.5383   -2.7561   -2.8165 H   0  0  0  0  0  0  0  0  0  0  0  0
    1.2722   -1.1054   -0.4426 C   0  0  0  0  0  0  0  0  0  0  0  0
    2.1017   -2.2480   -0.4367 C   0  0  0  0  0  0  0  0  0  0  0  0
    1.6324   -3.2292   -0.5988 H   0  0  0  0  0  0  0  0  0  0  0  0
    3.4782   -2.1457   -0.1991 C   0  0  0  0  0  0  0  0  0  0  0  0
    4.0982   -3.0549   -0.1969 H   0  0  0  0  0  0  0  0  0  0  0  0
    4.0621   -0.8955    0.0613 C   0  0  0  0  0  0  0  0  0  0  0  0
    5.1382   -0.8143    0.2724 H   0  0  0  0  0  0  0  0  0  0  0  0
    3.2583    0.2521    0.0800 C   0  0  0  0  0  0  0  0  0  0  0  0
    3.6916    1.2333    0.3193 H   0  0  0  0  0  0  0  0  0  0  0  0
    1.8822    0.1589   -0.1825 C   0  0  0  0  0  0  0  0  0  0  0  0
    2.4439    2.7066   -1.8370 C   0  0  0  0  0  0  0  0  0  0  0  0
    3.3467    3.0558   -1.2936 H   0  0  0  0  0  0  0  0  0  0  0  0
    2.1905    3.4781   -2.5880 H   0  0  0  0  0  0  0  0  0  0  0  0
    2.7226    1.7751   -2.3686 H   0  0  0  0  0  0  0  0  0  0  0  0
    1.2795    2.4914   -0.9270 C   0  0  1  0  0  3  0  0  0  0  0  0
    0.1862    3.3137   -0.6491 C   0  0  0  0  0  0  0  0  0  0  0  0
    0.0025    4.3113   -1.0617 H   0  0  0  0  0  0  0  0  0  0  0  0
   -0.6388    2.5866    0.2467 C   0  0  0  0  0  0  0  0  0  0  0  0
   -1.9499    2.9605    0.8619 C   0  0  0  0  0  0  0  0  0  0  0  0
   -2.6576    2.1084    0.7975 H   0  0  0  0  0  0  0  0  0  0  0  0
   -2.3904    3.8357    0.3490 H   0  0  0  0  0  0  0  0  0  0  0  0
   -1.8316    3.2170    1.9353 H   0  0  0  0  0  0  0  0  0  0  0  0
  2 17  1  0  0  0  0
  3 26  1  0  0  0  0
  3  4  1  0  0  0  0
  5  9  1  0  0  0  0
  5  6  1  0  0  0  0
  7  5  1  0  0  0  0
  8  5  1  0  0  0  0
  9  1  1  0  0  0  0
 10  9  2  0  0  0  0
 11 10  1  0  0  0  0
 12 10  1  6  0  0  0
 12  2  1  0  0  0  0
 13 16  1  0  0  0  0
 13 12  1  0  0  0  0
 14 13  1  0  0  0  0
 15 13  1  0  0  0  0
 17 18  2  0  0  0  0
 17 26  1  0  0  0  0
 18 20  1  0  0  0  0
 19 18  1  0  0  0  0
 20 21  1  0  0  0  0
 20 22  2  0  0  0  0
 22 24  1  0  0  0  0
 22 23  1  0  0  0  0
 24 25  1  0  0  0  0
 26 24  2  0  0  0  0
 27 28  1  0  0  0  0
 29 27  1  0  0  0  0
 30 27  1  0  0  0  0
 31 27  1  6  0  0  0
 31 32  1  0  0  0  0
 31  3  1  0  0  0  0
 32 34  2  0  0  0  0
 33 32  1  0  0  0  0
 34  4  1  0  0  0  0
 34 35  1  0  0  0  0
 35 38  1  0  0  0  0
 36 35  1  0  0  0  0
 37 35  1  0  0  0  0
M  CHG  1   1  -1
M  END
