2,3,4
 OpenBabel05122313063D

 29 29  0  0  0  0  0  0  0  0999 V2000
   -5.2868    3.7407   -0.4912 Cl  0  0  0  0  0  0  0  0  0  0  0  0
   -0.6895    0.3109    0.9026 O   0  5  0  0  0  0  0  0  0  0  0  0
   -1.2180   -1.1181   -1.4473 N   0  0  0  0  0  2  0  0  0  0  0  0
    0.9853   -2.5828   -1.1322 N   0  0  0  0  0  0  0  0  0  0  0  0
    1.5613   -1.9090   -1.6716 H   0  0  0  0  0  0  0  0  0  0  0  0
   -2.4878    0.8147   -0.6696 C   0  0  0  0  0  0  0  0  0  0  0  0
   -1.7115    1.0374    0.5244 C   0  0  0  0  0  0  0  0  0  0  0  0
   -2.0982    2.1234    1.3665 C   0  0  0  0  0  0  0  0  0  0  0  0
   -1.5025    2.3025    2.2728 H   0  0  0  0  0  0  0  0  0  0  0  0
   -3.1791    2.9361    1.0537 C   0  0  0  0  0  0  0  0  0  0  0  0
   -3.4547    3.7712    1.7140 H   0  0  0  0  0  0  0  0  0  0  0  0
   -3.9383    2.7068   -0.1235 C   0  0  0  0  0  0  0  0  0  0  0  0
   -3.5936    1.6642   -0.9709 C   0  0  0  0  0  0  0  0  0  0  0  0
   -4.1754    1.4903   -1.8881 H   0  0  0  0  0  0  0  0  0  0  0  0
   -2.1650   -0.2268   -1.5924 C   0  0  0  0  0  3  0  0  0  0  0  0
   -2.7754   -0.2754   -2.5171 H   0  0  0  0  0  0  0  0  0  0  0  0
   -0.8601   -1.9818   -2.5702 C   0  0  0  0  0  0  0  0  0  0  0  0
   -1.7555   -2.3370   -3.1230 H   0  0  0  0  0  0  0  0  0  0  0  0
   -0.2385   -1.3969   -3.2856 H   0  0  0  0  0  0  0  0  0  0  0  0
   -0.0461   -3.1444   -2.0329 C   0  0  0  0  0  0  0  0  0  0  0  0
   -0.6794   -3.8405   -1.4415 H   0  0  0  0  0  0  0  0  0  0  0  0
    0.4022   -3.7304   -2.8618 H   0  0  0  0  0  0  0  0  0  0  0  0
    1.8874   -3.5844   -0.5167 C   0  0  0  0  0  0  0  0  0  0  0  0
    1.2683   -4.2689    0.1029 H   0  0  0  0  0  0  0  0  0  0  0  0
    2.5494   -3.0256    0.1726 H   0  0  0  0  0  0  0  0  0  0  0  0
    2.7240   -4.3813   -1.5140 C   0  0  0  0  0  0  0  0  0  0  0  0
    2.1114   -5.0372   -2.1630 H   0  0  0  0  0  0  0  0  0  0  0  0
    3.4339   -5.0319   -0.9672 H   0  0  0  0  0  0  0  0  0  0  0  0
    3.3230   -3.7085   -2.1615 H   0  0  0  0  0  0  0  0  0  0  0  0
  1 12  1  0  0  0  0
  4 23  1  0  0  0  0
  5  4  1  0  0  0  0
  6  7  1  0  0  0  0
  7  2  1  0  0  0  0
  7  8  2  0  0  0  0
  8  9  1  0  0  0  0
 10  8  1  0  0  0  0
 10 11  1  0  0  0  0
 12 10  2  0  0  0  0
 13  6  2  0  0  0  0
 13 12  1  0  0  0  0
 14 13  1  0  0  0  0
 15  3  1  0  0  0  0
 15  6  1  0  0  0  0
 16 15  1  0  0  0  0
 17 20  1  0  0  0  0
 17  3  1  0  0  0  0
 18 17  1  0  0  0  0
 19 17  1  0  0  0  0
 20 21  1  0  0  0  0
 20  4  1  0  0  0  0
 22 20  1  0  0  0  0
 23 24  1  0  0  0  0
 23 25  1  0  0  0  0
 26 28  1  0  0  0  0
 26 23  1  0  0  0  0
 27 26  1  0  0  0  0
 29 26  1  0  0  0  0
M  CHG  1   2  -1
M  END
