3,7,8
 OpenBabel05122313063D

 38 39  0  0  0  0  0  0  0  0999 V2000
    2.2097    4.6740   -1.0826 O   0  0  0  0  0  0  0  0  0  0  0  0
    2.1265    3.6804   -1.2841 H   0  0  0  0  0  0  0  0  0  0  0  0
   -0.2063    1.6492    0.5437 O   0  5  0  0  0  0  0  0  0  0  0  0
   -2.0078   -4.9140    0.1124 O   0  0  0  0  0  0  0  0  0  0  0  0
   -2.6790   -4.3662   -0.3664 H   0  0  0  0  0  0  0  0  0  0  0  0
    1.3820    2.2482   -1.0145 N   0  0  0  0  0  0  0  0  0  0  0  0
    1.4092    0.9185   -1.1880 N   0  0  0  0  0  2  0  0  0  0  0  0
    0.9502   -1.5621   -1.2784 N   0  0  0  0  0  2  0  0  0  0  0  0
   -0.7659   -4.4002   -0.1280 N   0  0  0  0  0  0  0  0  0  0  0  0
    1.2370    4.9624   -0.2098 C   0  0  0  0  0  0  0  0  0  0  0  0
    1.0867    6.3031    0.2164 C   0  0  0  0  0  0  0  0  0  0  0  0
    1.7763    7.0522   -0.1986 H   0  0  0  0  0  0  0  0  0  0  0  0
    0.0912    6.6512    1.1300 C   0  0  0  0  0  0  0  0  0  0  0  0
   -0.0083    7.7027    1.4415 H   0  0  0  0  0  0  0  0  0  0  0  0
   -0.7863    5.6775    1.6551 C   0  0  0  0  0  0  0  0  0  0  0  0
   -1.5703    5.9632    2.3709 H   0  0  0  0  0  0  0  0  0  0  0  0
   -0.6494    4.3509    1.2523 C   0  0  0  0  0  0  0  0  0  0  0  0
   -1.3121    3.5620    1.6365 H   0  0  0  0  0  0  0  0  0  0  0  0
    0.3491    3.9700    0.3242 C   0  0  0  0  0  0  0  0  0  0  0  0
    0.4762    2.5624   -0.0557 C   0  0  0  0  0  0  0  0  0  0  0  0
    2.3298    0.2866   -1.8992 C   0  0  0  0  0  0  0  0  0  0  0  0
    3.4502    0.9908   -2.5891 C   0  0  0  0  0  0  0  0  0  0  0  0
    3.1076    1.9744   -2.9634 H   0  0  0  0  0  0  0  0  0  0  0  0
    3.8346    0.4025   -3.4433 H   0  0  0  0  0  0  0  0  0  0  0  0
    4.2884    1.1748   -1.8814 H   0  0  0  0  0  0  0  0  0  0  0  0
    2.1473   -1.1520   -1.8400 C   0  0  0  0  0  0  0  0  0  0  0  0
    3.1205   -2.0800   -2.2521 C   0  0  0  0  0  0  0  0  0  0  0  0
    4.0733   -1.7164   -2.6576 H   0  0  0  0  0  0  0  0  0  0  0  0
    2.8739   -3.4467   -2.0913 C   0  0  0  0  0  0  0  0  0  0  0  0
    3.6340   -4.1884   -2.3771 H   0  0  0  0  0  0  0  0  0  0  0  0
    1.6313   -3.8565   -1.5973 C   0  0  0  0  0  0  0  0  0  0  0  0
    1.3532   -4.9150   -1.5141 H   0  0  0  0  0  0  0  0  0  0  0  0
    0.6708   -2.8913   -1.2285 C   0  0  0  0  0  0  0  0  0  0  0  0
   -0.7011   -3.3471   -0.8909 C   0  0  0  0  0  0  0  0  0  0  0  0
   -1.8785   -2.7048   -1.5710 C   0  0  0  0  0  0  0  0  0  0  0  0
   -2.7652   -2.6286   -0.9058 H   0  0  0  0  0  0  0  0  0  0  0  0
   -2.1606   -3.2877   -2.4749 H   0  0  0  0  0  0  0  0  0  0  0  0
   -1.6429   -1.6701   -1.8830 H   0  0  0  0  0  0  0  0  0  0  0  0
  1 10  1  0  0  0  0
  2  1  1  0  0  0  0
  5  4  1  0  0  0  0
  6 20  2  0  0  0  0
  7  6  1  0  0  0  0
  8 33  1  0  0  0  0
  9  4  1  0  0  0  0
 10 11  2  0  0  0  0
 10 19  1  0  0  0  0
 11 13  1  0  0  0  0
 12 11  1  0  0  0  0
 13 14  1  0  0  0  0
 13 15  2  0  0  0  0
 15 16  1  0  0  0  0
 17 18  1  0  0  0  0
 17 15  1  0  0  0  0
 19 17  2  0  0  0  0
 20 19  1  0  0  0  0
 20  3  1  0  0  0  0
 21 26  2  0  0  0  0
 21  7  1  0  0  0  0
 22 21  1  0  0  0  0
 22 25  1  0  0  0  0
 23 22  1  0  0  0  0
 24 22  1  0  0  0  0
 26  8  1  0  0  0  0
 27 29  2  0  0  0  0
 27 26  1  0  0  0  0
 28 27  1  0  0  0  0
 29 31  1  0  0  0  0
 30 29  1  0  0  0  0
 31 32  1  0  0  0  0
 31 33  2  0  0  0  0
 33 34  1  0  0  0  0
 34  9  2  0  0  0  0
 35 36  1  0  0  0  0
 35 34  1  0  0  0  0
 37 35  1  0  0  0  0
 38 35  1  0  0  0  0
M  CHG  1   3  -1
M  END
