2,3,5
 OpenBabel05122313063D

 38 39  0  0  0  0  0  0  0  0999 V2000
    3.1819   -2.0519    1.4634 S   0  0  0  0  0  0  0  0  0  0  0  0
   -1.4010    1.6065   -0.3356 O   0  5  0  0  0  0  0  0  0  0  0  0
   -0.2847   -0.7535    0.4695 N   0  0  0  0  0  2  0  0  0  0  0  0
    0.6535   -1.5598    1.0380 N   0  0  0  0  0  0  0  0  0  0  0  0
    2.0514    0.0395    0.0573 N   0  0  0  0  0  2  0  0  0  0  0  0
    3.0073    0.3794   -0.0627 H   0  0  0  0  0  0  0  0  0  0  0  0
   -2.5656    0.9470   -0.3460 C   0  0  0  0  0  0  0  0  0  0  0  0
   -3.7125    1.6774   -0.7690 C   0  0  0  0  0  0  0  0  0  0  0  0
   -3.5596    2.7153   -1.0970 H   0  0  0  0  0  0  0  0  0  0  0  0
   -4.9621    1.0916   -0.7573 C   0  0  0  0  0  0  0  0  0  0  0  0
   -5.8434    1.6643   -1.0857 H   0  0  0  0  0  0  0  0  0  0  0  0
   -5.1426   -0.2582   -0.3300 C   0  0  0  0  0  0  0  0  0  0  0  0
   -3.9964   -1.0212    0.0986 C   0  0  0  0  0  0  0  0  0  0  0  0
   -2.6825   -0.3978    0.0969 C   0  0  0  0  0  0  0  0  0  0  0  0
   -1.5411   -1.1244    0.5906 C   0  0  0  0  0  3  0  0  0  0  0  0
   -1.6948   -2.0794    1.1213 H   0  0  0  0  0  0  0  0  0  0  0  0
    1.8625   -1.0963    0.7704 C   0  0  0  0  0  0  0  0  0  0  0  0
    4.6530   -1.3465    0.6361 C   0  0  0  0  0  0  0  0  0  0  0  0
    5.4919   -1.7617    1.2310 H   0  0  0  0  0  0  0  0  0  0  0  0
    4.6836   -0.2467    0.8055 H   0  0  0  0  0  0  0  0  0  0  0  0
    4.7848   -1.7060   -0.8469 C   0  0  0  0  0  0  0  0  0  0  0  0
    3.8716   -1.3744   -1.3840 H   0  0  0  0  0  0  0  0  0  0  0  0
    4.8090   -2.8131   -0.9396 H   0  0  0  0  0  0  0  0  0  0  0  0
    6.0222   -1.0907   -1.5182 C   0  0  0  0  0  0  0  0  0  0  0  0
    5.9679    0.0185   -1.4395 H   0  0  0  0  0  0  0  0  0  0  0  0
    5.9686   -1.3130   -2.6051 H   0  0  0  0  0  0  0  0  0  0  0  0
    7.3612   -1.5838   -0.9646 C   0  0  0  0  0  0  0  0  0  0  0  0
    8.2128   -1.1544   -1.5292 H   0  0  0  0  0  0  0  0  0  0  0  0
    7.5051   -1.3048    0.0997 H   0  0  0  0  0  0  0  0  0  0  0  0
    7.4403   -2.6893   -1.0312 H   0  0  0  0  0  0  0  0  0  0  0  0
   -6.4336   -0.8586   -0.3306 C   0  0  0  0  0  0  0  0  0  0  0  0
   -7.2914   -0.2529   -0.6622 H   0  0  0  0  0  0  0  0  0  0  0  0
   -6.6124   -2.1739    0.0711 C   0  0  0  0  0  0  0  0  0  0  0  0
   -7.6145   -2.6277    0.0659 H   0  0  0  0  0  0  0  0  0  0  0  0
   -5.4893   -2.9330    0.4823 C   0  0  0  0  0  0  0  0  0  0  0  0
   -5.6210   -3.9805    0.7930 H   0  0  0  0  0  0  0  0  0  0  0  0
   -4.2174   -2.3726    0.4922 C   0  0  0  0  0  0  0  0  0  0  0  0
   -3.3715   -3.0011    0.8017 H   0  0  0  0  0  0  0  0  0  0  0  0
  3 15  1  0  0  0  0
  3  4  1  0  0  0  0
  5 17  1  0  0  0  0
  6  5  1  0  0  0  0
  7  2  1  0  0  0  0
  7 14  1  0  0  0  0
  8 10  1  0  0  0  0
  8  7  2  0  0  0  0
  9  8  1  0  0  0  0
 10 12  2  0  0  0  0
 11 10  1  0  0  0  0
 12 13  1  0  0  0  0
 13 37  1  0  0  0  0
 14 13  2  0  0  0  0
 14 15  1  0  0  0  0
 15 16  1  0  0  0  0
 17  4  2  0  0  0  0
 17  1  1  0  0  0  0
 18 20  1  0  0  0  0
 18 19  1  0  0  0  0
 18  1  1  0  0  0  0
 21 18  1  0  0  0  0
 22 21  1  0  0  0  0
 23 21  1  0  0  0  0
 24 25  1  0  0  0  0
 24 27  1  0  0  0  0
 24 21  1  0  0  0  0
 26 24  1  0  0  0  0
 27 29  1  0  0  0  0
 28 27  1  0  0  0  0
 30 27  1  0  0  0  0
 31 12  1  0  0  0  0
 31 33  2  0  0  0  0
 32 31  1  0  0  0  0
 33 35  1  0  0  0  0
 34 33  1  0  0  0  0
 35 37  2  0  0  0  0
 35 36  1  0  0  0  0
 37 38  1  0  0  0  0
M  CHG  1   2  -1
M  END
