1,2,3
 OpenBabel05122313063D

 36 37  0  0  0  0  0  0  0  0999 V2000
   -1.8800    1.5111   -0.5042 N   0  0  0  0  0  2  0  0  0  0  0  0
    0.3103   -0.0853    0.2220 N   0  0  0  0  0  0  0  0  0  0  0  0
   -1.9164    0.2167    1.8744 O   0  5  0  0  0  0  0  0  0  0  0  0
   -2.9736    2.3031   -0.4736 C   0  0  0  0  0  3  0  0  0  0  0  0
   -2.8819    3.6980   -0.4836 C   0  0  0  0  0  0  0  0  0  0  0  0
   -1.6136    4.2938   -0.5083 C   0  0  0  0  0  0  0  0  0  0  0  0
   -0.4801    3.4703   -0.5308 C   0  0  0  0  0  0  0  0  0  0  0  0
   -0.6470    2.0796   -0.5363 C   0  0  0  0  0  0  0  0  0  0  0  0
    0.5071    1.1180   -0.6308 C   0  0  0  0  0  0  0  0  0  0  0  0
    0.4762    0.2457    1.6663 C   0  0  0  0  0  0  0  0  0  0  0  0
   -0.8218    0.7467    2.3569 C   0  0  0  0  0  0  0  0  0  0  0  0
   -0.7351    1.5034    3.3128 O   0  0  0  0  0  0  0  0  0  0  0  0
    1.2227   -1.1950   -0.2215 C   0  0  0  0  0  0  0  0  0  0  0  0
    2.6989   -0.8572   -0.1917 C   0  0  0  0  0  0  0  0  0  0  0  0
    3.4534   -0.9849    0.9950 C   0  0  0  0  0  0  0  0  0  0  0  0
    4.8083   -0.6354    1.0283 C   0  0  0  0  0  0  0  0  0  0  0  0
    5.4071   -0.1596   -0.1442 C   0  0  0  0  0  0  0  0  0  0  0  0
    4.6975   -0.0374   -1.3445 C   0  0  0  0  0  0  0  0  0  0  0  0
    3.3435   -0.3916   -1.3582 C   0  0  0  0  0  0  0  0  0  0  0  0
    6.8462    0.2170   -0.1176 N   0  0  0  0  0  0  0  0  0  0  0  0
    7.3365    0.6377   -1.1641 O   0  0  0  0  0  0  0  0  0  0  0  0
    7.4429    0.0839    0.9489 O   0  0  0  0  0  0  0  0  0  0  0  0
   -3.9443    1.7893   -0.4286 H   0  0  0  0  0  0  0  0  0  0  0  0
   -3.7993    4.3022   -0.4561 H   0  0  0  0  0  0  0  0  0  0  0  0
   -1.5066    5.3885   -0.4983 H   0  0  0  0  0  0  0  0  0  0  0  0
    0.5332    3.8966   -0.5369 H   0  0  0  0  0  0  0  0  0  0  0  0
    0.5702    0.7664   -1.6833 H   0  0  0  0  0  0  0  0  0  0  0  0
    1.4635    1.6290   -0.3905 H   0  0  0  0  0  0  0  0  0  0  0  0
    1.2962    0.9742    1.8270 H   0  0  0  0  0  0  0  0  0  0  0  0
    0.7425   -0.6903    2.1965 H   0  0  0  0  0  0  0  0  0  0  0  0
    0.9154   -1.4727   -1.2483 H   0  0  0  0  0  0  0  0  0  0  0  0
    1.0038   -2.0605    0.4314 H   0  0  0  0  0  0  0  0  0  0  0  0
    2.9780   -1.3758    1.9066 H   0  0  0  0  0  0  0  0  0  0  0  0
    5.4159   -0.7275    1.9382 H   0  0  0  0  0  0  0  0  0  0  0  0
    5.2210    0.3247   -2.2392 H   0  0  0  0  0  0  0  0  0  0  0  0
    2.7765   -0.3174   -2.2993 H   0  0  0  0  0  0  0  0  0  0  0  0
  1  4  1  0  0  0  0
  2 10  1  0  0  0  0
  3 11  1  0  0  0  0
  4 23  1  0  0  0  0
  5  4  1  0  0  0  0
  5 24  1  0  0  0  0
  6 25  1  0  0  0  0
  6  5  2  0  0  0  0
  7  6  1  0  0  0  0
  8  7  2  0  0  0  0
  8  1  1  0  0  0  0
  9  8  1  0  0  0  0
  9 28  1  0  0  0  0
  9  2  1  0  0  0  0
 10 29  1  0  0  0  0
 10 30  1  0  0  0  0
 10 11  1  0  0  0  0
 11 12  2  0  0  0  0
 13 14  1  0  0  0  0
 13  2  1  0  0  0  0
 13 32  1  0  0  0  0
 14 15  1  0  0  0  0
 15 16  2  0  0  0  0
 15 33  1  0  0  0  0
 16 34  1  0  0  0  0
 17 20  1  0  0  0  0
 17 16  1  0  0  0  0
 18 17  2  0  0  0  0
 19 18  1  0  0  0  0
 19 14  2  0  0  0  0
 20 22  2  0  0  0  0
 21 20  2  0  0  0  0
 26  7  1  0  0  0  0
 27  9  1  0  0  0  0
 31 13  1  0  0  0  0
 35 18  1  0  0  0  0
 36 19  1  0  0  0  0
M  CHG  1   3  -1
M  END
