1,2,4
 OpenBabel05122313063D

 34 36  0  0  1  0  0  0  0  0999 V2000
   -1.6126   -0.3787   -1.3248 O   0  5  0  0  0  0  0  0  0  0  0  0
    1.6579   -0.3073    1.3676 N   0  0  0  0  0  2  0  0  0  0  0  0
   -4.1510    0.1371   -1.6493 O   0  0  0  0  0  0  0  0  0  0  0  0
    0.2848   -2.0964   -0.0902 N   0  0  0  0  0  2  0  0  0  0  0  0
   -2.0063   -2.6916   -0.7095 C   0  0  0  0  0  0  0  0  0  0  0  0
    3.6618   -1.7113    1.4376 C   0  0  0  0  0  0  0  0  0  0  0  0
   -4.3064   -3.5148   -0.9136 C   0  0  0  0  0  0  0  0  0  0  0  0
   -5.0425   -4.3297   -0.8513 H   0  0  0  0  0  0  0  0  0  0  0  0
    2.3024   -1.4654    1.0497 C   0  0  2  0  0  3  0  0  0  0  0  0
   -0.6743   -2.9790   -0.2827 C   0  0  0  0  0  3  0  0  0  0  0  0
   -0.4686   -4.0445   -0.0309 H   0  0  0  0  0  0  0  0  0  0  0  0
    2.2249   -3.6395   -0.0620 C   0  0  0  0  0  0  0  0  0  0  0  0
    1.7032   -4.3787   -0.6871 H   0  0  0  0  0  0  0  0  0  0  0  0
    3.5634   -3.8779    0.3346 C   0  0  0  0  0  0  0  0  0  0  0  0
    4.0448   -4.8221    0.0373 H   0  0  0  0  0  0  0  0  0  0  0  0
   -3.8364   -1.1568   -1.3694 C   0  0  0  0  0  0  0  0  0  0  0  0
   -2.4071   -1.3630   -1.1517 C   0  0  0  0  0  0  0  0  0  0  0  0
    1.5714   -2.4507    0.2863 C   0  0  0  0  0  0  0  0  0  0  0  0
    2.2984    0.6350    2.0492 C   0  0  0  0  0  0  0  0  0  0  0  0
    1.7353    1.5604    2.2555 H   0  0  0  0  0  0  0  0  0  0  0  0
    3.6415    0.4881    2.4808 C   0  0  0  0  0  0  0  0  0  0  0  0
    4.1292    1.3035    3.0336 H   0  0  0  0  0  0  0  0  0  0  0  0
    4.2787   -2.9417    1.0716 C   0  0  0  0  0  0  0  0  0  0  0  0
    5.3206   -3.1316    1.3710 H   0  0  0  0  0  0  0  0  0  0  0  0
   -4.7447   -2.2040   -1.2636 C   0  0  0  0  0  0  0  0  0  0  0  0
   -5.8154   -2.0299   -1.4421 H   0  0  0  0  0  0  0  0  0  0  0  0
   -2.9734   -3.7476   -0.6374 C   0  0  0  0  0  0  0  0  0  0  0  0
   -2.6318   -4.7504   -0.3334 H   0  0  0  0  0  0  0  0  0  0  0  0
   -5.5132    0.4749   -1.7667 C   0  0  0  0  0  0  0  0  0  0  0  0
   -6.0020   -0.0403   -2.6258 H   0  0  0  0  0  0  0  0  0  0  0  0
   -5.5534    1.5683   -1.9301 H   0  0  0  0  0  0  0  0  0  0  0  0
   -6.0827    0.2268   -0.8403 H   0  0  0  0  0  0  0  0  0  0  0  0
    4.3184   -0.6815    2.1706 C   0  0  0  0  0  0  0  0  0  0  0  0
    5.3663   -0.8264    2.4778 H   0  0  0  0  0  0  0  0  0  0  0  0
  1 17  1  0  0  0  0
  2 19  1  0  0  0  0
  3 16  1  0  0  0  0
  4 18  1  0  0  0  0
  5 27  1  0  0  0  0
  5 10  1  0  0  0  0
  6 33  2  0  0  0  0
  7  8  1  0  0  0  0
  7 27  2  0  0  0  0
  9 18  1  6  0  0  0
  9  2  1  0  0  0  0
  9  6  1  0  0  0  0
 10  4  1  0  0  0  0
 10 11  1  0  0  0  0
 12 18  2  0  0  0  0
 12 14  1  0  0  0  0
 13 12  1  0  0  0  0
 14 23  2  0  0  0  0
 15 14  1  0  0  0  0
 16 25  2  0  0  0  0
 16 17  1  0  0  0  0
 17  5  2  0  0  0  0
 19 20  1  0  0  0  0
 19 21  2  0  0  0  0
 21 22  1  0  0  0  0
 23 24  1  0  0  0  0
 23  6  1  0  0  0  0
 25  7  1  0  0  0  0
 26 25  1  0  0  0  0
 27 28  1  0  0  0  0
 29  3  1  0  0  0  0
 29 32  1  0  0  0  0
 30 29  1  0  0  0  0
 31 29  1  0  0  0  0
 33 34  1  0  0  0  0
 33 21  1  0  0  0  0
M  CHG  1   1  -1
M  END
