1,2,3
 OpenBabel05122313063D

 26 27  0  0  1  0  0  0  0  0999 V2000
   -0.3053   -0.1053    1.7092 O   0  0  0  0  0  1  0  0  0  0  0  0
   -1.4132    0.8293   -0.3233 N   0  0  0  0  0  2  0  0  0  0  0  0
    1.5988    0.4365   -0.1461 N   0  0  0  0  0  2  0  0  0  0  0  0
   -2.1726    1.0877   -1.4156 C   0  0  0  0  0  3  0  0  0  0  0  0
   -2.1575    0.3175   -2.1997 H   0  0  0  0  0  0  0  0  0  0  0  0
   -2.9156    2.2662   -1.5257 C   0  0  0  0  0  0  0  0  0  0  0  0
   -3.5227    2.4361   -2.4260 H   0  0  0  0  0  0  0  0  0  0  0  0
   -2.8851    3.2014   -0.4804 C   0  0  0  0  0  0  0  0  0  0  0  0
   -3.4712    4.1302   -0.5379 H   0  0  0  0  0  0  0  0  0  0  0  0
   -2.0976    2.9206    0.6499 C   0  0  0  0  0  0  0  0  0  0  0  0
   -2.0458    3.6188    1.4985 H   0  0  0  0  0  0  0  0  0  0  0  0
   -1.3757    1.7277    0.6938 C   0  0  0  0  0  0  0  0  0  0  0  0
   -0.4600    1.2745    1.8220 C   0  0  2  0  0  0  0  0  0  0  0  0
   -0.9292    1.5311    2.7997 H   0  0  0  0  0  0  0  0  0  0  0  0
    0.9269    1.9303    1.7713 C   0  0  0  0  0  0  0  0  0  0  0  0
    1.4614    1.6193    2.6962 H   0  0  0  0  0  0  0  0  0  0  0  0
    0.8354    3.0347    1.8194 H   0  0  0  0  0  0  0  0  0  0  0  0
    1.8154    1.5611    0.5977 C   0  0  1  0  0  3  0  0  0  0  0  0
    2.9285    2.3817    0.3416 C   0  0  0  0  0  0  0  0  0  0  0  0
    3.0650    3.2854    0.9537 H   0  0  0  0  0  0  0  0  0  0  0  0
    3.8451    2.0558   -0.6633 C   0  0  0  0  0  0  0  0  0  0  0  0
    4.7110    2.7030   -0.8658 H   0  0  0  0  0  0  0  0  0  0  0  0
    3.6332    0.8767   -1.3897 C   0  0  0  0  0  0  0  0  0  0  0  0
    4.3273    0.5466   -2.1752 H   0  0  0  0  0  0  0  0  0  0  0  0
    2.5139    0.0997   -1.0975 C   0  0  0  0  0  0  0  0  0  0  0  0
    2.3176   -0.8384   -1.6325 H   0  0  0  0  0  0  0  0  0  0  0  0
  1 13  1  0  0  0  0
  2 12  1  0  0  0  0
  3 18  1  0  0  0  0
  4  2  1  0  0  0  0
  5  4  1  0  0  0  0
  6  4  1  0  0  0  0
  6  8  2  0  0  0  0
  7  6  1  0  0  0  0
  8 10  1  0  0  0  0
  9  8  1  0  0  0  0
 10 12  2  0  0  0  0
 10 11  1  0  0  0  0
 12 13  1  0  0  0  0
 13 14  1  1  0  0  0
 15 17  1  0  0  0  0
 15 13  1  0  0  0  0
 15 16  1  0  0  0  0
 18 15  1  1  0  0  0
 19 18  1  0  0  0  0
 19 20  1  0  0  0  0
 21 19  2  0  0  0  0
 22 21  1  0  0  0  0
 23 25  2  0  0  0  0
 23 21  1  0  0  0  0
 24 23  1  0  0  0  0
 25  3  1  0  0  0  0
 26 25  1  0  0  0  0
M  END
