4,5,6
 OpenBabel05122313063D

 54 56  0  0  1  0  0  0  0  0999 V2000
   -5.0069    2.2068    0.0005 C   0  0  0  0  0  0  0  0  0  0  0  0
   -3.8878   -0.0971    0.0002 C   0  0  0  0  0  0  0  0  0  0  0  0
   -4.9080   -0.5033    0.0004 H   0  0  0  0  0  0  0  0  0  0  0  0
   -0.5071   -1.3287   -0.0009 O   0  0  0  0  0  1  0  0  0  0  0  0
    3.3754   -0.3706    0.0004 N   0  0  0  0  0  2  0  0  0  0  0  0
    1.1532    1.0698   -0.0004 N   0  0  0  0  0  2  0  0  0  0  0  0
   -2.8330   -1.0018   -0.0002 C   0  0  0  0  0  0  0  0  0  0  0  0
   -0.0481    1.6280   -0.0002 C   0  0  0  0  0  0  0  0  0  0  0  0
   -0.0950    2.7330   -0.0000 H   0  0  0  0  0  0  0  0  0  0  0  0
    4.8422    1.5911    0.0003 C   0  0  0  0  0  0  0  0  0  0  0  0
    3.5417    0.9971    0.0001 C   0  0  0  0  0  0  0  0  0  0  0  0
   -1.3082    0.9722   -0.0002 C   0  0  0  0  0  0  0  0  0  0  0  0
    2.3535    1.7995   -0.0004 C   0  0  0  0  0  0  0  0  0  0  0  0
   -3.0668   -2.5249   -0.0002 C   0  0  0  0  0  0  0  0  0  0  0  0
   -1.4798   -0.4733   -0.0004 C   0  0  2  0  0  3  0  0  0  0  0  0
    5.9622    0.7102    0.0008 C   0  0  0  0  0  0  0  0  0  0  0  0
    6.9788    1.1326    0.0010 H   0  0  0  0  0  0  0  0  0  0  0  0
    4.9409    3.0117   -0.0002 C   0  0  0  0  0  3  0  0  0  0  0  0
    5.9353    3.4816   -0.0001 H   0  0  0  0  0  0  0  0  0  0  0  0
   -2.4606    1.8267    0.0001 C   0  0  0  0  0  0  0  0  0  0  0  0
   -2.2803    2.9114    0.0003 H   0  0  0  0  0  0  0  0  0  0  0  0
   -4.5693   -2.8630    0.0002 C   0  0  0  0  0  0  0  0  0  0  0  0
   -5.0876   -2.4708   -0.8989 H   0  0  0  0  0  0  0  0  0  0  0  0
   -5.0870   -2.4710    0.8998 H   0  0  0  0  0  0  0  0  0  0  0  0
   -4.6949   -3.9640    0.0002 H   0  0  0  0  0  0  0  0  0  0  0  0
    2.4977    3.1917   -0.0011 C   0  0  0  0  0  0  0  0  0  0  0  0
    1.6141    3.8444   -0.0017 H   0  0  0  0  0  0  0  0  0  0  0  0
    3.7845    3.7828   -0.0009 C   0  0  0  0  0  0  0  0  0  0  0  0
    3.8606    4.8804   -0.0014 H   0  0  0  0  0  0  0  0  0  0  0  0
    4.4395   -1.1767    0.0009 C   0  0  0  0  0  0  0  0  0  0  0  0
    4.2024   -2.2548    0.0011 H   0  0  0  0  0  0  0  0  0  0  0  0
    5.7584   -0.6613    0.0012 C   0  0  0  0  0  0  0  0  0  0  0  0
    6.6026   -1.3650    0.0016 H   0  0  0  0  0  0  0  0  0  0  0  0
   -3.7480    1.3264    0.0003 C   0  0  0  0  0  0  0  0  0  0  0  0
   -5.8445    1.8991   -1.2619 C   0  0  0  0  0  0  0  0  0  0  0  0
   -5.2672    2.1193   -2.1825 H   0  0  0  0  0  0  0  0  0  0  0  0
   -6.7676    2.5151   -1.2759 H   0  0  0  0  0  0  0  0  0  0  0  0
   -6.1517    0.8350   -1.3037 H   0  0  0  0  0  0  0  0  0  0  0  0
   -2.4382   -3.1576    1.2657 C   0  0  0  0  0  0  0  0  0  0  0  0
   -2.8654   -2.7067    2.1850 H   0  0  0  0  0  0  0  0  0  0  0  0
   -1.3408   -3.0283    1.2791 H   0  0  0  0  0  0  0  0  0  0  0  0
   -2.6572   -4.2453    1.2863 H   0  0  0  0  0  0  0  0  0  0  0  0
   -2.4390   -3.1573   -1.2667 C   0  0  0  0  0  0  0  0  0  0  0  0
   -2.8669   -2.7062   -2.1857 H   0  0  0  0  0  0  0  0  0  0  0  0
   -2.6579   -4.2450   -1.2874 H   0  0  0  0  0  0  0  0  0  0  0  0
   -1.3417   -3.0278   -1.2809 H   0  0  0  0  0  0  0  0  0  0  0  0
   -4.6605    3.7050    0.0008 C   0  0  0  0  0  0  0  0  0  0  0  0
   -4.0774    3.9922   -0.8977 H   0  0  0  0  0  0  0  0  0  0  0  0
   -4.0772    3.9917    0.8994 H   0  0  0  0  0  0  0  0  0  0  0  0
   -5.5908    4.3078    0.0010 H   0  0  0  0  0  0  0  0  0  0  0  0
   -5.8446    1.8986    1.2627 C   0  0  0  0  0  0  0  0  0  0  0  0
   -5.2674    2.1184    2.1835 H   0  0  0  0  0  0  0  0  0  0  0  0
   -6.1519    0.8346    1.3041 H   0  0  0  0  0  0  0  0  0  0  0  0
   -6.7676    2.5147    1.2769 H   0  0  0  0  0  0  0  0  0  0  0  0
  1 47  1  0  0  0  0
  1 51  1  0  0  0  0
  2 34  1  0  0  0  0
  2  3  1  0  0  0  0
  5 30  1  0  0  0  0
  6  8  1  0  0  0  0
  7  2  2  0  0  0  0
  8 12  2  0  0  0  0
  8  9  1  0  0  0  0
 10 16  2  0  0  0  0
 11 10  1  0  0  0  0
 11  5  1  0  0  0  0
 12 20  1  0  0  0  0
 13  6  1  0  0  0  0
 13 11  2  0  0  0  0
 14  7  1  0  0  0  0
 14 22  1  0  0  0  0
 14 39  1  0  0  0  0
 15  4  1  6  0  0  0
 15 12  1  0  0  0  0
 15  7  1  0  0  0  0
 16 17  1  0  0  0  0
 16 32  1  0  0  0  0
 18 19  1  0  0  0  0
 18 10  1  0  0  0  0
 20 34  2  0  0  0  0
 20 21  1  0  0  0  0
 22 24  1  0  0  0  0
 23 22  1  0  0  0  0
 25 22  1  0  0  0  0
 26 28  2  0  0  0  0
 26 13  1  0  0  0  0
 27 26  1  0  0  0  0
 28 18  1  0  0  0  0
 29 28  1  0  0  0  0
 30 31  1  0  0  0  0
 30 32  2  0  0  0  0
 32 33  1  0  0  0  0
 34  1  1  0  0  0  0
 35  1  1  0  0  0  0
 36 35  1  0  0  0  0
 37 35  1  0  0  0  0
 38 35  1  0  0  0  0
 39 41  1  0  0  0  0
 39 42  1  0  0  0  0
 39 40  1  0  0  0  0
 43 14  1  0  0  0  0
 44 43  1  0  0  0  0
 45 43  1  0  0  0  0
 46 43  1  0  0  0  0
 47 50  1  0  0  0  0
 47 49  1  0  0  0  0
 48 47  1  0  0  0  0
 51 54  1  0  0  0  0
 51 53  1  0  0  0  0
 51 52  1  0  0  0  0
M  END
