1,4
 OpenBabel05122313063D

 39 40  0  0  0  0  0  0  0  0999 V2000
    0.0149    1.2982    1.0089 N   0  0  0  0  0  2  0  0  0  0  0  0
    2.3575   -0.6980    1.0169 N   0  0  0  0  0  0  0  0  0  0  0  0
   -5.9211    0.1151    0.0093 N   0  0  0  0  0  0  0  0  0  0  0  0
   -0.4722   -0.7255   -1.0097 O   0  5  0  0  0  0  0  0  0  0  0  0
    2.6088   -3.3388   -0.1183 O   0  0  0  0  0  0  0  0  0  0  0  0
   -6.2409    0.9416    0.8701 O   0  0  0  0  0  0  0  0  0  0  0  0
   -6.7188   -0.5564   -0.6519 O   0  0  0  0  0  0  0  0  0  0  0  0
   -2.1720    0.4771    0.2524 C   0  0  0  0  0  0  0  0  0  0  0  0
   -1.7130   -0.4872   -0.7433 C   0  0  0  0  0  0  0  0  0  0  0  0
   -2.7277   -1.2238   -1.4487 C   0  0  0  0  0  0  0  0  0  0  0  0
   -2.3758   -1.9488   -2.1967 H   0  0  0  0  0  0  0  0  0  0  0  0
   -4.0775   -1.0300   -1.2182 C   0  0  0  0  0  0  0  0  0  0  0  0
   -4.8491   -1.5885   -1.7657 H   0  0  0  0  0  0  0  0  0  0  0  0
   -4.4917   -0.0863   -0.2472 C   0  0  0  0  0  0  0  0  0  0  0  0
   -3.5581    0.6453    0.4770 C   0  0  0  0  0  0  0  0  0  0  0  0
   -3.9245    1.3579    1.2307 H   0  0  0  0  0  0  0  0  0  0  0  0
   -1.2828    1.2409    1.0945 C   0  0  0  0  0  3  0  0  0  0  0  0
   -1.7767    1.8223    1.9067 H   0  0  0  0  0  0  0  0  0  0  0  0
    0.7897    1.9864    2.0279 C   0  0  0  0  0  0  0  0  0  0  0  0
    0.1209    2.5518    2.7165 H   0  0  0  0  0  0  0  0  0  0  0  0
    1.4692    2.7007    1.5181 H   0  0  0  0  0  0  0  0  0  0  0  0
    1.6288    0.9805    2.8355 C   0  0  0  0  0  0  0  0  0  0  0  0
    0.9538    0.2472    3.3269 H   0  0  0  0  0  0  0  0  0  0  0  0
    2.1183    1.5382    3.6611 H   0  0  0  0  0  0  0  0  0  0  0  0
    2.7563    0.2758    2.0748 C   0  0  0  0  0  0  0  0  0  0  0  0
    3.3778    1.0385    1.5661 H   0  0  0  0  0  0  0  0  0  0  0  0
    3.4015   -0.2650    2.8076 H   0  0  0  0  0  0  0  0  0  0  0  0
    3.5850   -1.1624    0.3184 C   0  0  0  0  0  0  0  0  0  0  0  0
    4.2922   -1.5878    1.0694 H   0  0  0  0  0  0  0  0  0  0  0  0
    4.0650   -0.2823   -0.1529 H   0  0  0  0  0  0  0  0  0  0  0  0
    3.2485   -2.2269   -0.7188 C   0  0  0  0  0  0  0  0  0  0  0  0
    2.6139   -1.7778   -1.5229 H   0  0  0  0  0  0  0  0  0  0  0  0
    4.1804   -2.5966   -1.1905 H   0  0  0  0  0  0  0  0  0  0  0  0
    1.3985   -2.9292    0.4959 C   0  0  0  0  0  0  0  0  0  0  0  0
    0.9439   -3.8276    0.9585 H   0  0  0  0  0  0  0  0  0  0  0  0
    0.6851   -2.5291   -0.2640 H   0  0  0  0  0  0  0  0  0  0  0  0
    1.6385   -1.8717    1.5746 C   0  0  0  0  0  0  0  0  0  0  0  0
    0.6665   -1.5361    1.9884 H   0  0  0  0  0  0  0  0  0  0  0  0
    2.2418   -2.3079    2.4063 H   0  0  0  0  0  0  0  0  0  0  0  0
  1 17  1  0  0  0  0
  1 19  1  0  0  0  0
  2 37  1  0  0  0  0
  2 25  1  0  0  0  0
  3  6  2  0  0  0  0
  4  9  1  0  0  0  0
  5 34  1  0  0  0  0
  7  3  2  0  0  0  0
  8 15  1  0  0  0  0
  8 17  1  0  0  0  0
  9  8  2  0  0  0  0
 10 12  2  0  0  0  0
 10  9  1  0  0  0  0
 11 10  1  0  0  0  0
 12 14  1  0  0  0  0
 13 12  1  0  0  0  0
 14  3  1  0  0  0  0
 14 15  2  0  0  0  0
 15 16  1  0  0  0  0
 17 18  1  0  0  0  0
 19 20  1  0  0  0  0
 19 22  1  0  0  0  0
 21 19  1  0  0  0  0
 22 23  1  0  0  0  0
 22 24  1  0  0  0  0
 25 27  1  0  0  0  0
 25 22  1  0  0  0  0
 26 25  1  0  0  0  0
 28  2  1  0  0  0  0
 28 29  1  0  0  0  0
 30 28  1  0  0  0  0
 31  5  1  0  0  0  0
 31 28  1  0  0  0  0
 32 31  1  0  0  0  0
 33 31  1  0  0  0  0
 34 35  1  0  0  0  0
 34 37  1  0  0  0  0
 36 34  1  0  0  0  0
 37 38  1  0  0  0  0
 37 39  1  0  0  0  0
M  CHG  1   4  -1
M  END
