4,7,8
 OpenBabel05122313063D

 37 38  0  0  0  0  0  0  0  0999 V2000
    0.8954   -2.0694    1.1262 S   0  0  0  0  0  0  0  0  0  0  0  0
    0.8292   -2.8512    2.3808 O   0  0  0  0  0  0  0  0  0  0  0  0
    0.0714   -2.4738   -0.0554 O   0  0  0  0  0  0  0  0  0  0  0  0
   -0.1578    2.3675   -1.0514 O   0  5  0  0  0  0  0  0  0  0  0  0
    1.6791   -4.6505   -0.9702 O   0  0  0  0  0  0  0  0  0  0  0  0
    2.0063   -3.2048   -2.5840 O   0  0  0  0  0  0  0  0  0  0  0  0
   -0.5350    1.7829    1.6786 N   0  0  0  0  0  2  0  0  0  0  0  0
    0.6093   -0.5027    1.4094 N   0  0  0  0  0  2  0  0  0  0  0  0
    2.1598   -3.6283   -1.4337 N   0  0  0  0  0  0  0  0  0  0  0  0
   -0.5733    3.5559   -0.7133 C   0  0  0  0  0  0  0  0  0  0  0  0
   -0.6674    4.5495   -1.7371 C   0  0  0  0  0  0  0  0  0  0  0  0
   -0.3678    4.2518   -2.7523 H   0  0  0  0  0  0  0  0  0  0  0  0
   -1.1157    5.8358   -1.4610 C   0  0  0  0  0  0  0  0  0  0  0  0
   -1.1728    6.5718   -2.2786 H   0  0  0  0  0  0  0  0  0  0  0  0
   -1.4933    6.2143   -0.1497 C   0  0  0  0  0  0  0  0  0  0  0  0
   -1.8444    7.2349    0.0590 H   0  0  0  0  0  0  0  0  0  0  0  0
   -1.4109    5.2703    0.8662 C   0  0  0  0  0  0  0  0  0  0  0  0
   -1.7007    5.5376    1.8955 H   0  0  0  0  0  0  0  0  0  0  0  0
   -0.9599    3.9440    0.6208 C   0  0  0  0  0  0  0  0  0  0  0  0
   -0.9153    3.0251    1.7215 C   0  0  0  0  0  3  0  0  0  0  0  0
   -1.2478    3.4200    2.7034 H   0  0  0  0  0  0  0  0  0  0  0  0
   -0.5263    0.9512    2.8811 C   0  0  0  0  0  0  0  0  0  0  0  0
   -1.4563    0.3449    2.8886 H   0  0  0  0  0  0  0  0  0  0  0  0
   -0.4970    1.5809    3.7957 H   0  0  0  0  0  0  0  0  0  0  0  0
    0.6737    0.0204    2.7691 C   0  0  0  0  0  0  0  0  0  0  0  0
    1.6129    0.5963    2.9350 H   0  0  0  0  0  0  0  0  0  0  0  0
    0.6112   -0.8020    3.5091 H   0  0  0  0  0  0  0  0  0  0  0  0
    2.6349   -2.1894    0.5865 C   0  0  0  0  0  0  0  0  0  0  0  0
    3.5860   -1.5149    1.3727 C   0  0  0  0  0  0  0  0  0  0  0  0
    3.2495   -0.9693    2.2656 H   0  0  0  0  0  0  0  0  0  0  0  0
    4.9392   -1.5126    1.0184 C   0  0  0  0  0  0  0  0  0  0  0  0
    5.6640   -0.9690    1.6408 H   0  0  0  0  0  0  0  0  0  0  0  0
    5.3596   -2.1642   -0.1527 C   0  0  0  0  0  0  0  0  0  0  0  0
    6.4180   -2.1437   -0.4502 H   0  0  0  0  0  0  0  0  0  0  0  0
    4.4248   -2.8233   -0.9582 C   0  0  0  0  0  0  0  0  0  0  0  0
    4.7242   -3.3285   -1.8877 H   0  0  0  0  0  0  0  0  0  0  0  0
    3.0768   -2.8528   -0.5669 C   0  0  0  0  0  0  0  0  0  0  0  0
  1  8  1  0  0  0  0
  1  2  2  0  0  0  0
  3  1  2  0  0  0  0
  4 10  1  0  0  0  0
  6  9  2  0  0  0  0
  7 20  1  0  0  0  0
  7 22  1  0  0  0  0
  8 25  1  0  0  0  0
  9  5  2  0  0  0  0
  9 37  1  0  0  0  0
 10 19  1  0  0  0  0
 11 13  1  0  0  0  0
 11 10  2  0  0  0  0
 12 11  1  0  0  0  0
 13 15  2  0  0  0  0
 14 13  1  0  0  0  0
 15 16  1  0  0  0  0
 15 17  1  0  0  0  0
 17 18  1  0  0  0  0
 19 17  2  0  0  0  0
 19 20  1  0  0  0  0
 20 21  1  0  0  0  0
 22 23  1  0  0  0  0
 22 24  1  0  0  0  0
 25 22  1  0  0  0  0
 25 26  1  0  0  0  0
 25 27  1  0  0  0  0
 28  1  1  0  0  0  0
 28 29  1  0  0  0  0
 29 30  1  0  0  0  0
 31 29  2  0  0  0  0
 31 32  1  0  0  0  0
 33 31  1  0  0  0  0
 34 33  1  0  0  0  0
 35 37  1  0  0  0  0
 35 33  2  0  0  0  0
 36 35  1  0  0  0  0
 37 28  2  0  0  0  0
M  CHG  1   4  -1
M  END
