1,2,3
 OpenBabel05122313063D

 24 23  0  0  1  0  0  0  0  0999 V2000
   -0.8652    0.3571    2.4242 N   0  0  0  0  0  0  0  0  0  0  0  0
    0.8938    1.0820    0.5834 N   0  0  0  0  0  2  0  0  0  0  0  0
   -0.3991    0.1883   -1.4260 O   0  5  0  0  0  0  0  0  0  0  0  0
    1.1770    0.5763   -2.9523 O   0  0  0  0  0  0  0  0  0  0  0  0
    2.5196    1.7284    2.1092 O   0  0  0  0  0  0  0  0  0  0  0  0
    0.8184    0.6279   -1.7890 C   0  0  0  0  0  0  0  0  0  0  0  0
    1.6894    1.1605   -0.6386 C   0  0  1  0  0  0  0  0  0  0  0  0
    1.3895    1.3262    1.8172 C   0  0  0  0  0  0  0  0  0  0  0  0
    0.3350    1.0982    2.9255 C   0  0  0  0  0  0  0  0  0  0  0  0
    2.3036    2.5590   -0.9545 C   0  0  0  0  0  0  0  0  0  0  0  0
    3.5370    2.3932   -1.8513 C   0  0  0  0  0  0  0  0  0  0  0  0
    1.3013    3.5424   -1.5663 C   0  0  0  0  0  0  0  0  0  0  0  0
    3.2590    1.9284   -2.8177 H   0  0  0  0  0  0  0  0  0  0  0  0
    4.2985    1.7502   -1.3646 H   0  0  0  0  0  0  0  0  0  0  0  0
    4.0038    3.3771   -2.0569 H   0  0  0  0  0  0  0  0  0  0  0  0
    0.9824    3.2115   -2.5758 H   0  0  0  0  0  0  0  0  0  0  0  0
    1.7575    4.5469   -1.6714 H   0  0  0  0  0  0  0  0  0  0  0  0
    0.3922    3.6580   -0.9444 H   0  0  0  0  0  0  0  0  0  0  0  0
   -0.8935   -0.5812    2.8481 H   0  0  0  0  0  0  0  0  0  0  0  0
   -1.7256    0.8264    2.7416 H   0  0  0  0  0  0  0  0  0  0  0  0
    2.5481    0.4576   -0.5494 H   0  0  0  0  0  0  0  0  0  0  0  0
    0.8145    0.5641    3.7690 H   0  0  0  0  0  0  0  0  0  0  0  0
    0.0250    2.0867    3.3195 H   0  0  0  0  0  0  0  0  0  0  0  0
    2.6446    2.9420    0.0294 H   0  0  0  0  0  0  0  0  0  0  0  0
  1 20  1  0  0  0  0
  1 19  1  0  0  0  0
  1  9  1  0  0  0  0
  2  8  1  0  0  0  0
  4  6  2  0  0  0  0
  6  3  1  0  0  0  0
  6  7  1  0  0  0  0
  7 21  1  1  0  0  0
  7  2  1  0  0  0  0
  8  5  2  0  0  0  0
  8  9  1  0  0  0  0
  9 23  1  0  0  0  0
  9 22  1  0  0  0  0
 10  7  1  0  0  0  0
 10 24  1  0  0  0  0
 11 14  1  0  0  0  0
 11 10  1  0  0  0  0
 12 10  1  0  0  0  0
 12 18  1  0  0  0  0
 13 11  1  0  0  0  0
 15 11  1  0  0  0  0
 16 12  1  0  0  0  0
 17 12  1  0  0  0  0
M  CHG  1   3  -1
M  END
