2,4,10
 OpenBabel05122313063D

 52 54  0  0  1  0  0  0  0  0999 V2000
   -6.4586   -0.5348   -0.5672 Cl  0  0  0  0  0  0  0  0  0  0  0  0
   -0.9324   -2.2188    0.5817 O   0  5  0  0  0  0  0  0  0  0  0  0
   -1.9303    4.0781   -1.5660 C   0  0  0  0  0  0  0  0  0  0  0  0
   -0.1058    0.2633   -0.1808 N   0  0  0  0  0  2  0  0  0  0  0  0
    0.7687    1.3027   -0.2052 N   0  0  0  0  0  0  0  0  0  0  0  0
   -2.4395   -0.4462   -0.0840 C   0  0  0  0  0  0  0  0  0  0  0  0
   -2.1685   -1.7972    0.2949 C   0  0  0  0  0  0  0  0  0  0  0  0
   -1.3982    0.5703   -0.1823 C   0  0  2  0  0  3  0  0  0  0  0  0
   -3.2262   -2.7206    0.4169 C   0  0  0  0  0  0  0  0  0  0  0  0
    2.3505   -0.4276   -0.3398 N   0  0  0  0  0  2  0  0  0  0  0  0
    2.0203    0.8886   -0.3010 C   0  0  0  0  0  0  0  0  0  0  0  0
    4.2341   -1.5222   -1.4651 C   0  0  0  0  0  0  0  0  0  0  0  0
   -1.8004    2.0059   -0.2894 C   0  0  0  0  0  0  0  0  0  0  0  0
   -3.7911   -0.0978   -0.3415 C   0  0  0  0  0  0  0  0  0  0  0  0
   -2.5745    4.7089   -0.4876 C   0  0  0  0  0  0  0  0  0  0  0  0
   -4.5620   -2.3744    0.1650 C   0  0  0  0  0  0  0  0  0  0  0  0
   -1.5376    2.7373   -1.4660 C   0  0  0  0  0  0  0  0  0  0  0  0
    4.5259   -0.6239    0.7853 C   0  0  0  0  0  0  0  0  0  0  0  0
    5.5663   -1.9580   -1.4579 C   0  0  0  0  0  0  0  0  0  0  0  0
   -4.8160   -1.0340   -0.2228 C   0  0  0  0  0  0  0  0  0  0  0  0
   -2.4549    2.6404    0.7848 C   0  0  0  0  0  0  0  0  0  0  0  0
    5.8588   -1.0556    0.7799 C   0  0  0  0  0  0  0  0  0  0  0  0
    3.7131   -0.8466   -0.3455 C   0  0  0  0  0  0  0  0  0  0  0  0
   -5.6718   -3.3777    0.2920 C   0  0  0  0  0  0  0  0  0  0  0  0
   -2.8327    3.9887    0.6885 C   0  0  0  0  0  0  0  0  0  0  0  0
    6.3829   -1.7216   -0.3403 C   0  0  0  0  0  0  0  0  0  0  0  0
    2.3149    3.6400   -0.3289 C   0  0  0  0  0  0  0  0  0  0  0  0
    1.8667    4.0236    1.0811 C   0  0  0  0  0  0  0  0  0  0  0  0
    3.3059    2.0998   -0.4108 S   0  0  0  0  0  0  0  0  0  0  0  0
    1.0239    5.3004    1.0817 C   0  0  0  0  0  0  0  0  0  0  0  0
   -4.0373    0.9258   -0.6518 H   0  0  0  0  0  0  0  0  0  0  0  0
   -2.9682   -3.7463    0.7181 H   0  0  0  0  0  0  0  0  0  0  0  0
   -6.4314   -3.0380    1.0264 H   0  0  0  0  0  0  0  0  0  0  0  0
   -6.2091   -3.4958   -0.6719 H   0  0  0  0  0  0  0  0  0  0  0  0
   -5.2879   -4.3657    0.6072 H   0  0  0  0  0  0  0  0  0  0  0  0
   -1.0238    2.2430   -2.3034 H   0  0  0  0  0  0  0  0  0  0  0  0
   -1.7297    4.6377   -2.4922 H   0  0  0  0  0  0  0  0  0  0  0  0
   -2.8772    5.7640   -0.5664 H   0  0  0  0  0  0  0  0  0  0  0  0
   -3.3364    4.4766    1.5366 H   0  0  0  0  0  0  0  0  0  0  0  0
   -2.6668    2.0698    1.7019 H   0  0  0  0  0  0  0  0  0  0  0  0
    3.5787   -1.7049   -2.3291 H   0  0  0  0  0  0  0  0  0  0  0  0
    5.9694   -2.4878   -2.3343 H   0  0  0  0  0  0  0  0  0  0  0  0
    7.4283   -2.0650   -0.3383 H   0  0  0  0  0  0  0  0  0  0  0  0
    6.4914   -0.8793    1.6633 H   0  0  0  0  0  0  0  0  0  0  0  0
    4.0921   -0.1202    1.6610 H   0  0  0  0  0  0  0  0  0  0  0  0
    1.4448    3.5112   -1.0023 H   0  0  0  0  0  0  0  0  0  0  0  0
    2.9885    4.4067   -0.7663 H   0  0  0  0  0  0  0  0  0  0  0  0
    1.2727    3.1827    1.4934 H   0  0  0  0  0  0  0  0  0  0  0  0
    2.7602    4.1416    1.7308 H   0  0  0  0  0  0  0  0  0  0  0  0
    1.5813    6.1612    0.6555 H   0  0  0  0  0  0  0  0  0  0  0  0
    0.0986    5.1655    0.4849 H   0  0  0  0  0  0  0  0  0  0  0  0
    0.7191    5.5776    2.1109 H   0  0  0  0  0  0  0  0  0  0  0  0
  1 20  1  0  0  0  0
  3 17  2  0  0  0  0
  3 15  1  0  0  0  0
  5  4  1  0  0  0  0
  6  7  1  0  0  0  0
  7  9  2  0  0  0  0
  7  2  1  0  0  0  0
  8  4  1  6  0  0  0
  8  6  1  0  0  0  0
  9 32  1  0  0  0  0
 10 11  1  0  0  0  0
 11  5  2  0  0  0  0
 12 19  2  0  0  0  0
 12 23  1  0  0  0  0
 13  8  1  0  0  0  0
 13 21  2  0  0  0  0
 14 20  1  0  0  0  0
 14  6  2  0  0  0  0
 15 25  2  0  0  0  0
 16 24  1  0  0  0  0
 16  9  1  0  0  0  0
 17 13  1  0  0  0  0
 18 45  1  0  0  0  0
 19 26  1  0  0  0  0
 20 16  2  0  0  0  0
 21 40  1  0  0  0  0
 22 18  1  0  0  0  0
 22 44  1  0  0  0  0
 23 10  1  0  0  0  0
 23 18  2  0  0  0  0
 24 35  1  0  0  0  0
 24 33  1  0  0  0  0
 25 21  1  0  0  0  0
 25 39  1  0  0  0  0
 26 43  1  0  0  0  0
 26 22  2  0  0  0  0
 27 28  1  0  0  0  0
 28 30  1  0  0  0  0
 28 48  1  0  0  0  0
 28 49  1  0  0  0  0
 29 27  1  0  0  0  0
 29 11  1  0  0  0  0
 30 52  1  0  0  0  0
 31 14  1  0  0  0  0
 34 24  1  0  0  0  0
 36 17  1  0  0  0  0
 37  3  1  0  0  0  0
 38 15  1  0  0  0  0
 41 12  1  0  0  0  0
 42 19  1  0  0  0  0
 46 27  1  0  0  0  0
 47 27  1  0  0  0  0
 50 30  1  0  0  0  0
 51 30  1  0  0  0  0
M  CHG  1   2  -1
M  END
