40,41,46
 OpenBabel05122313063D

 47 48  0  0  1  0  0  0  0  0999 V2000
   -0.2806    1.1269    0.1900 C   0  0  0  0  0  0  0  0  0  0  0  0
   -0.9887    0.7123   -1.1302 C   0  0  2  0  0  0  0  0  0  0  0  0
   -0.7149    1.4674   -1.8991 H   0  0  0  0  0  0  0  0  0  0  0  0
   -2.5115    0.7167   -0.9511 C   0  0  0  0  0  0  0  0  0  0  0  0
   -3.0008    0.3963   -1.8977 H   0  0  0  0  0  0  0  0  0  0  0  0
   -2.7958   -0.0272   -0.1768 H   0  0  0  0  0  0  0  0  0  0  0  0
   -3.0869    2.0848   -0.5877 C   0  0  0  0  0  0  0  0  0  0  0  0
   -2.7649    2.4011    0.4241 H   0  0  0  0  0  0  0  0  0  0  0  0
   -2.6860    2.8537   -1.2843 H   0  0  0  0  0  0  0  0  0  0  0  0
   -4.6081    2.0837   -0.7429 C   0  0  0  0  0  0  0  0  0  0  0  0
    0.6051   -0.6079   -2.5360 C   0  0  0  0  0  0  0  0  0  0  0  0
    0.4893    0.1969   -3.2926 H   0  0  0  0  0  0  0  0  0  0  0  0
    0.6274   -1.5829   -3.0664 H   0  0  0  0  0  0  0  0  0  0  0  0
    1.8602   -0.4306   -1.7454 C   0  0  0  0  0  0  0  0  0  0  0  0
    2.9954    0.3558   -1.8406 C   0  0  0  0  0  0  0  0  0  0  0  0
    3.3323    1.0929   -2.5748 H   0  0  0  0  0  0  0  0  0  0  0  0
    4.8313    0.8223   -0.1510 C   0  0  0  0  0  0  0  0  0  0  0  0
    5.6508    0.8372   -0.8964 H   0  0  0  0  0  0  0  0  0  0  0  0
    5.1709    0.2304    0.7226 H   0  0  0  0  0  0  0  0  0  0  0  0
    4.4096    2.2290    0.2372 C   0  0  0  0  0  0  0  0  0  0  0  0
    5.2870    3.3118    0.0426 C   0  0  0  0  0  0  0  0  0  0  0  0
    6.2841    3.1402   -0.3945 H   0  0  0  0  0  0  0  0  0  0  0  0
    4.8931    4.6108    0.3998 C   0  0  0  0  0  0  0  0  0  0  0  0
    5.5860    5.4521    0.2465 H   0  0  0  0  0  0  0  0  0  0  0  0
    3.6130    4.8381    0.9308 C   0  0  0  0  0  0  0  0  0  0  0  0
    3.2998    5.8606    1.1912 H   0  0  0  0  0  0  0  0  0  0  0  0
    2.7309    3.7617    1.1164 C   0  0  0  0  0  0  0  0  0  0  0  0
    1.7098    3.9075    1.4977 H   0  0  0  0  0  0  0  0  0  0  0  0
    3.1323    2.4608    0.7842 C   0  0  0  0  0  0  0  0  0  0  0  0
    2.4230    1.6348    0.9493 H   0  0  0  0  0  0  0  0  0  0  0  0
   -6.7340    2.9073    0.2273 C   0  0  0  0  0  0  0  0  0  0  0  0
   -7.0744    2.5211   -0.7541 H   0  0  0  0  0  0  0  0  0  0  0  0
   -7.0301    3.9777    0.2874 H   0  0  0  0  0  0  0  0  0  0  0  0
   -7.3705    2.1118    1.3678 C   0  0  0  0  0  0  0  0  0  0  0  0
   -7.0153    2.4627    2.3592 H   0  0  0  0  0  0  0  0  0  0  0  0
   -7.1264    1.0344    1.2792 H   0  0  0  0  0  0  0  0  0  0  0  0
   -8.4740    2.2187    1.3510 H   0  0  0  0  0  0  0  0  0  0  0  0
    3.6997    0.0766   -0.7015 N   0  0  0  0  0  0  0  0  0  0  0  0
    3.0578   -0.8021    0.0780 N   0  0  0  0  0  2  0  0  0  0  0  0
    1.9530   -1.1115   -0.5563 N   0  0  0  0  0  2  0  0  0  0  0  0
   -0.5440   -0.6412   -1.5890 N   0  0  0  0  0  0  0  0  0  0  0  0
   -1.3341   -1.1009   -2.0605 H   0  0  0  0  0  0  0  0  0  0  0  0
   -5.2846    2.8088    0.2023 N   0  0  0  0  0  0  0  0  0  0  0  0
   -4.7508    3.2124    0.9733 H   0  0  0  0  0  0  0  0  0  0  0  0
   -0.1639    2.3266    0.4445 O   0  5  0  0  0  0  0  0  0  0  0  0
    0.0890    0.1422    0.9572 O   0  0  0  0  0  0  0  0  0  0  0  0
   -5.1677    1.4962   -1.6704 O   0  0  0  0  0  0  0  0  0  0  0  0
  1 45  1  0  0  0  0
  1 46  2  0  0  0  0
  2  3  1  6  0  0  0
  2  4  1  0  0  0  0
  2  1  1  0  0  0  0
  4  7  1  0  0  0  0
  4  6  1  0  0  0  0
  5  4  1  0  0  0  0
  7  8  1  0  0  0  0
  9  7  1  0  0  0  0
 10  7  1  0  0  0  0
 10 43  1  0  0  0  0
 11 14  1  0  0  0  0
 11 41  1  0  0  0  0
 12 11  1  0  0  0  0
 13 11  1  0  0  0  0
 14 40  1  0  0  0  0
 15 14  2  0  0  0  0
 15 38  1  0  0  0  0
 16 15  1  0  0  0  0
 17 20  1  0  0  0  0
 17 19  1  0  0  0  0
 18 17  1  0  0  0  0
 20 29  1  0  0  0  0
 21 20  2  0  0  0  0
 21 23  1  0  0  0  0
 22 21  1  0  0  0  0
 23 25  2  0  0  0  0
 24 23  1  0  0  0  0
 25 27  1  0  0  0  0
 25 26  1  0  0  0  0
 27 28  1  0  0  0  0
 29 30  1  0  0  0  0
 29 27  2  0  0  0  0
 31 33  1  0  0  0  0
 31 34  1  0  0  0  0
 32 31  1  0  0  0  0
 34 35  1  0  0  0  0
 36 34  1  0  0  0  0
 37 34  1  0  0  0  0
 38 17  1  0  0  0  0
 38 39  1  0  0  0  0
 40 39  1  0  0  0  0
 41  2  1  0  0  0  0
 42 41  1  0  0  0  0
 43 31  1  0  0  0  0
 43 44  1  0  0  0  0
 47 10  2  0  0  0  0
M  CHG  1  45  -1
M  END
