1,3,4
 OpenBabel05122313063D

 33 35  0  0  1  0  0  0  0  0999 V2000
   -1.2816    1.4101   -0.4886 O   0  5  0  0  0  0  0  0  0  0  0  0
   -2.0346    0.9252    1.6556 N   0  0  0  0  0  0  0  0  0  0  0  0
   -0.9809    0.0841    1.6019 N   0  0  0  0  0  2  0  0  0  0  0  0
    1.0353   -1.2657    0.9209 N   0  0  0  0  0  0  0  0  0  0  0  0
    1.1698   -2.4846    2.8626 N   0  0  0  0  0  0  0  0  0  0  0  0
   -2.1099    1.5934    0.4989 C   0  0  0  0  0  0  0  0  0  0  0  0
   -0.6198   -0.7383    2.5685 C   0  0  1  0  0  3  0  0  0  0  0  0
   -1.3161   -0.8543    3.8800 C   0  0  0  0  0  0  0  0  0  0  0  0
   -1.4660    0.1459    4.3326 H   0  0  0  0  0  0  0  0  0  0  0  0
   -0.7249   -1.5021    4.5523 H   0  0  0  0  0  0  0  0  0  0  0  0
   -2.3262   -1.2983    3.7500 H   0  0  0  0  0  0  0  0  0  0  0  0
   -3.1960    2.5859    0.3250 C   0  0  0  0  0  0  0  0  0  0  0  0
   -3.3011    3.3006   -0.8867 C   0  0  0  0  0  0  0  0  0  0  0  0
   -2.5637    3.1029   -1.6775 H   0  0  0  0  0  0  0  0  0  0  0  0
   -4.3252    4.2402   -1.0627 C   0  0  0  0  0  0  0  0  0  0  0  0
   -4.4016    4.7963   -2.0096 H   0  0  0  0  0  0  0  0  0  0  0  0
   -5.2522    4.4744   -0.0336 C   0  0  0  0  0  0  0  0  0  0  0  0
   -6.0562    5.2133   -0.1731 H   0  0  0  0  0  0  0  0  0  0  0  0
   -5.1506    3.7648    1.1760 C   0  0  0  0  0  0  0  0  0  0  0  0
   -5.8750    3.9481    1.9842 H   0  0  0  0  0  0  0  0  0  0  0  0
   -4.1288    2.8256    1.3578 C   0  0  0  0  0  0  0  0  0  0  0  0
   -4.0295    2.2614    2.2957 H   0  0  0  0  0  0  0  0  0  0  0  0
    0.5289   -1.5306    2.1808 C   0  0  0  0  0  3  0  0  0  0  0  0
    2.0989   -2.1152    0.7687 C   0  0  0  0  0  0  0  0  0  0  0  0
    3.0372   -2.3126   -0.2670 C   0  0  0  0  0  0  0  0  0  0  0  0
    3.0236   -1.6974   -1.1773 H   0  0  0  0  0  0  0  0  0  0  0  0
    4.0162   -3.2920   -0.0707 C   0  0  0  0  0  0  0  0  0  0  0  0
    4.7668   -3.4651   -0.8575 H   0  0  0  0  0  0  0  0  0  0  0  0
    4.0793   -4.0602    1.1230 C   0  0  0  0  0  0  0  0  0  0  0  0
    4.8705   -4.8179    1.2298 H   0  0  0  0  0  0  0  0  0  0  0  0
    3.1684   -3.8607    2.1631 C   0  0  0  0  0  0  0  0  0  0  0  0
    3.2180   -4.4395    3.0974 H   0  0  0  0  0  0  0  0  0  0  0  0
    2.1655   -2.8800    1.9983 C   0  0  0  0  0  0  0  0  0  0  0  0
  1  6  1  0  0  0  0
  3  2  1  0  0  0  0
  4 23  1  0  0  0  0
  6  2  2  0  0  0  0
  7  3  1  6  0  0  0
  7  8  1  0  0  0  0
  8  9  1  0  0  0  0
  8 10  1  0  0  0  0
 11  8  1  0  0  0  0
 12  6  1  0  0  0  0
 12 21  1  0  0  0  0
 13 12  2  0  0  0  0
 14 13  1  0  0  0  0
 15 13  1  0  0  0  0
 15 17  2  0  0  0  0
 16 15  1  0  0  0  0
 17 19  1  0  0  0  0
 18 17  1  0  0  0  0
 19 21  2  0  0  0  0
 19 20  1  0  0  0  0
 21 22  1  0  0  0  0
 23  7  1  0  0  0  0
 23  5  1  0  0  0  0
 24  4  2  0  0  0  0
 24 33  1  0  0  0  0
 25 27  2  0  0  0  0
 25 24  1  0  0  0  0
 26 25  1  0  0  0  0
 27 29  1  0  0  0  0
 28 27  1  0  0  0  0
 29 30  1  0  0  0  0
 29 31  2  0  0  0  0
 31 32  1  0  0  0  0
 33 31  1  0  0  0  0
 33  5  2  0  0  0  0
M  CHG  1   1  -1
M  END
