3,4,5
 OpenBabel05122313063D

 41 41  0  0  1  0  0  0  0  0999 V2000
   -4.2039   -2.9454    0.5499 O   0  0  0  0  0  0  0  0  0  0  0  0
   -4.3662   -2.5324    1.4193 H   0  0  0  0  0  0  0  0  0  0  0  0
   -0.6167    1.1066    0.1292 O   0  5  0  0  0  0  0  0  0  0  0  0
   -0.2575   -1.5806   -0.0261 N   0  0  0  0  0  2  0  0  0  0  0  0
    2.4311   -1.3608   -0.0864 N   0  0  0  0  0  0  0  0  0  0  0  0
   -4.1141    1.7847   -0.0329 N   0  0  0  0  0  0  0  0  0  0  0  0
    0.4790   -2.8443    0.0616 C   0  0  0  0  0  0  0  0  0  0  0  0
   -0.0698   -3.6705   -0.4384 H   0  0  0  0  0  0  0  0  0  0  0  0
    0.5966   -3.1372    1.1286 H   0  0  0  0  0  0  0  0  0  0  0  0
    1.8305   -2.6238   -0.5937 C   0  0  0  0  0  0  0  0  0  0  0  0
    2.5080   -3.4895   -0.4215 H   0  0  0  0  0  0  0  0  0  0  0  0
    1.6930   -2.5051   -1.6868 H   0  0  0  0  0  0  0  0  0  0  0  0
    2.9305   -1.5528    1.3117 C   0  0  0  0  0  0  0  0  0  0  0  0
    3.6020   -2.4436    1.3220 H   0  0  0  0  0  0  0  0  0  0  0  0
    2.0508   -1.8187    1.9303 H   0  0  0  0  0  0  0  0  0  0  0  0
    3.6356   -0.3542    1.9283 C   0  0  0  0  0  0  0  0  0  0  0  0
    4.5993   -0.1285    1.4319 H   0  0  0  0  0  0  0  0  0  0  0  0
    3.8528   -0.5771    2.9914 H   0  0  0  0  0  0  0  0  0  0  0  0
    3.0042    0.5523    1.8706 H   0  0  0  0  0  0  0  0  0  0  0  0
    3.4810   -0.8557   -1.0198 C   0  0  0  0  0  0  0  0  0  0  0  0
    3.7354    0.1659   -0.6834 H   0  0  0  0  0  0  0  0  0  0  0  0
    2.9808   -0.7255   -2.0004 H   0  0  0  0  0  0  0  0  0  0  0  0
    4.7206   -1.7357   -1.1581 C   0  0  0  0  0  0  0  0  0  0  0  0
    5.2849   -1.8266   -0.2086 H   0  0  0  0  0  0  0  0  0  0  0  0
    5.4037   -1.2748   -1.8985 H   0  0  0  0  0  0  0  0  0  0  0  0
    4.4883   -2.7577   -1.5204 H   0  0  0  0  0  0  0  0  0  0  0  0
   -1.5737   -1.6303   -0.0718 C   0  0  0  0  0  0  0  0  0  0  0  0
   -2.0598   -2.6238   -0.0486 H   0  0  0  0  0  0  0  0  0  0  0  0
   -2.4343   -0.4866   -0.0927 C   0  0  0  0  0  0  0  0  0  0  0  0
   -3.8583   -0.6230   -0.2181 C   0  0  2  0  0  3  0  0  0  0  0  0
   -4.5237   -1.9622   -0.4346 C   0  0  0  0  0  0  0  0  0  0  0  0
   -5.6254   -1.8036   -0.5137 H   0  0  0  0  0  0  0  0  0  0  0  0
   -4.1962   -2.4027   -1.4015 H   0  0  0  0  0  0  0  0  0  0  0  0
   -4.6250    0.5371   -0.1745 C   0  0  0  0  0  0  0  0  0  0  0  0
   -5.7241    0.4689   -0.2681 H   0  0  0  0  0  0  0  0  0  0  0  0
   -2.8031    1.9545    0.0634 C   0  0  0  0  0  0  0  0  0  0  0  0
   -1.8811    0.8294    0.0310 C   0  0  0  0  0  0  0  0  0  0  0  0
   -2.2349    3.3329    0.2141 C   0  0  0  0  0  0  0  0  0  0  0  0
   -3.0539    4.0739    0.2121 H   0  0  0  0  0  0  0  0  0  0  0  0
   -1.5114    3.5584   -0.5968 H   0  0  0  0  0  0  0  0  0  0  0  0
   -1.6467    3.4198    1.1515 H   0  0  0  0  0  0  0  0  0  0  0  0
  1  2  1  0  0  0  0
  4  7  1  0  0  0  0
  5 13  1  0  0  0  0
  6 36  1  0  0  0  0
  7  9  1  0  0  0  0
  8  7  1  0  0  0  0
 10 11  1  0  0  0  0
 10  5  1  0  0  0  0
 10  7  1  0  0  0  0
 12 10  1  0  0  0  0
 13 14  1  0  0  0  0
 13 16  1  0  0  0  0
 13 15  1  0  0  0  0
 16 18  1  0  0  0  0
 17 16  1  0  0  0  0
 19 16  1  0  0  0  0
 20 21  1  0  0  0  0
 20  5  1  0  0  0  0
 22 20  1  0  0  0  0
 23 20  1  0  0  0  0
 23 24  1  0  0  0  0
 25 23  1  0  0  0  0
 26 23  1  0  0  0  0
 27 28  1  0  0  0  0
 27  4  1  0  0  0  0
 29 27  2  0  0  0  0
 29 37  1  0  0  0  0
 30 31  1  6  0  0  0
 30 34  1  0  0  0  0
 30 29  1  0  0  0  0
 31  1  1  0  0  0  0
 32 31  1  0  0  0  0
 33 31  1  0  0  0  0
 34  6  2  0  0  0  0
 35 34  1  0  0  0  0
 36 38  1  0  0  0  0
 37 36  2  0  0  0  0
 37  3  1  0  0  0  0
 38 41  1  0  0  0  0
 39 38  1  0  0  0  0
 40 38  1  0  0  0  0
M  CHG  1   3  -1
M  END
