1,4,7
 OpenBabel05122313063D

 37 39  0  0  0  0  0  0  0  0999 V2000
   -1.8166    1.3096   -0.3006 O   0  5  0  0  0  0  0  0  0  0  0  0
   -6.7135   -2.5751   -0.9133 O   0  0  0  0  0  0  0  0  0  0  0  0
   -7.7339   -0.7396   -0.2958 O   0  0  0  0  0  0  0  0  0  0  0  0
    1.9672   -0.9331   -0.0727 N   0  0  0  0  0  2  0  0  0  0  0  0
    0.3395   -2.1786   -1.1462 N   0  0  0  0  0  0  0  0  0  0  0  0
    0.0453   -3.0412   -1.6188 H   0  0  0  0  0  0  0  0  0  0  0  0
   -0.5869   -1.2327   -0.8377 N   0  0  0  0  0  2  0  0  0  0  0  0
   -6.7125   -1.3847   -0.5687 N   0  0  0  0  0  0  0  0  0  0  0  0
    3.2838   -0.7235    0.2507 C   0  0  0  0  0  0  0  0  0  0  0  0
    3.6112    0.4156    1.0389 C   0  0  0  0  0  0  0  0  0  0  0  0
    2.7868    1.0835    1.3309 H   0  0  0  0  0  0  0  0  0  0  0  0
    4.9293    0.6732    1.3979 C   0  0  0  0  0  0  0  0  0  0  0  0
    5.1663    1.5616    2.0031 H   0  0  0  0  0  0  0  0  0  0  0  0
    5.9681   -0.1959    0.9851 C   0  0  0  0  0  0  0  0  0  0  0  0
    7.0090    0.0160    1.2711 H   0  0  0  0  0  0  0  0  0  0  0  0
    5.6727   -1.3161    0.2124 C   0  0  0  0  0  3  0  0  0  0  0  0
    6.4863   -1.9817   -0.1107 H   0  0  0  0  0  0  0  0  0  0  0  0
    4.3367   -1.6112   -0.1714 C   0  0  0  0  0  0  0  0  0  0  0  0
    3.9729   -2.7594   -0.9697 C   0  0  0  0  0  0  0  0  0  0  0  0
    2.6382   -2.9305   -1.2922 C   0  0  0  0  0  0  0  0  0  0  0  0
    2.3186   -3.7902   -1.9025 H   0  0  0  0  0  0  0  0  0  0  0  0
    1.6625   -1.9946   -0.8274 C   0  0  0  0  0  0  0  0  0  0  0  0
   -1.8461   -1.5873   -0.9470 C   0  0  0  0  0  3  0  0  0  0  0  0
   -2.0705   -2.6388   -1.2410 H   0  0  0  0  0  0  0  0  0  0  0  0
   -2.9959   -0.7628   -0.6880 C   0  0  0  0  0  0  0  0  0  0  0  0
   -4.2573   -1.3922   -0.7671 C   0  0  0  0  0  0  0  0  0  0  0  0
   -4.3431   -2.4514   -1.0520 H   0  0  0  0  0  0  0  0  0  0  0  0
   -5.4306   -0.6978   -0.4768 C   0  0  0  0  0  0  0  0  0  0  0  0
   -5.3865    0.6650   -0.0879 C   0  0  0  0  0  0  0  0  0  0  0  0
   -6.3347    1.1728    0.1358 H   0  0  0  0  0  0  0  0  0  0  0  0
   -4.1663    1.3089   -0.0088 C   0  0  0  0  0  0  0  0  0  0  0  0
   -4.1058    2.3697    0.2786 H   0  0  0  0  0  0  0  0  0  0  0  0
   -2.9130    0.6588   -0.3266 C   0  0  0  0  0  0  0  0  0  0  0  0
    5.0163   -3.7330   -1.4411 C   0  0  0  0  0  0  0  0  0  0  0  0
    4.5671   -4.5517   -2.0341 H   0  0  0  0  0  0  0  0  0  0  0  0
    5.5597   -4.1861   -0.5858 H   0  0  0  0  0  0  0  0  0  0  0  0
    5.7803   -3.2322   -2.0721 H   0  0  0  0  0  0  0  0  0  0  0  0
  2  8  2  0  0  0  0
  4  9  1  0  0  0  0
  5  7  1  0  0  0  0
  5 22  1  0  0  0  0
  6  5  1  0  0  0  0
  8 28  1  0  0  0  0
  8  3  2  0  0  0  0
  9 10  2  0  0  0  0
 10 11  1  0  0  0  0
 10 12  1  0  0  0  0
 12 13  1  0  0  0  0
 14 15  1  0  0  0  0
 14 12  2  0  0  0  0
 16 14  1  0  0  0  0
 17 16  1  0  0  0  0
 18 16  1  0  0  0  0
 18  9  1  0  0  0  0
 19 18  2  0  0  0  0
 20 19  1  0  0  0  0
 20 22  2  0  0  0  0
 21 20  1  0  0  0  0
 22  4  1  0  0  0  0
 23  7  1  0  0  0  0
 23 25  1  0  0  0  0
 24 23  1  0  0  0  0
 25 33  1  0  0  0  0
 26 25  2  0  0  0  0
 26 28  1  0  0  0  0
 27 26  1  0  0  0  0
 28 29  2  0  0  0  0
 29 31  1  0  0  0  0
 29 30  1  0  0  0  0
 31 32  1  0  0  0  0
 33  1  1  0  0  0  0
 33 31  2  0  0  0  0
 34 19  1  0  0  0  0
 34 36  1  0  0  0  0
 35 34  1  0  0  0  0
 37 34  1  0  0  0  0
M  CHG  1   1  -1
M  END
