3,23,28
 OpenBabel05122313063D

 37 39  0  0  0  0  0  0  0  0999 V2000
    2.5810    1.3717   -0.3316 S   0  0  0  0  0  0  0  0  0  0  0  0
    0.8732    0.9442   -0.3103 C   0  0  0  0  0  0  0  0  0  0  0  0
    0.7090   -0.4084   -0.1670 N   0  0  0  0  0  2  0  0  0  0  0  0
    1.8535   -1.1354   -0.0589 N   0  0  0  0  0  0  0  0  0  0  0  0
    2.9193   -0.3841   -0.1264 C   0  0  0  0  0  0  0  0  0  0  0  0
    4.1996   -0.8940   -0.1536 N   0  0  0  0  0  0  0  0  0  0  0  0
    4.3370   -2.3133   -0.4788 C   0  0  0  0  0  0  0  0  0  0  0  0
    3.5039   -2.8696   -0.0118 H   0  0  0  0  0  0  0  0  0  0  0  0
    5.2981   -2.6822   -0.0771 H   0  0  0  0  0  0  0  0  0  0  0  0
    4.2998   -2.4938   -1.5755 H   0  0  0  0  0  0  0  0  0  0  0  0
    5.3465   -0.0779   -0.0324 C   0  0  0  0  0  0  0  0  0  0  0  0
    6.4831   -0.3296   -0.8346 C   0  0  0  0  0  0  0  0  0  0  0  0
    6.4637   -1.1430   -1.5732 H   0  0  0  0  0  0  0  0  0  0  0  0
    7.6265    0.4700   -0.7094 C   0  0  0  0  0  0  0  0  0  0  0  0
    8.4998    0.2622   -1.3463 H   0  0  0  0  0  0  0  0  0  0  0  0
    7.6585    1.5367    0.2027 C   0  0  0  0  0  0  0  0  0  0  0  0
    8.5561    2.1660    0.2918 H   0  0  0  0  0  0  0  0  0  0  0  0
    6.5348    1.7837    1.0071 C   0  0  0  0  0  0  0  0  0  0  0  0
    6.5515    2.6011    1.7439 H   0  0  0  0  0  0  0  0  0  0  0  0
    5.3929    0.9786    0.9068 C   0  0  0  0  0  0  0  0  0  0  0  0
    4.5394    1.1520    1.5771 H   0  0  0  0  0  0  0  0  0  0  0  0
   -0.1160    1.8065   -0.3910 N   0  0  0  0  0  0  0  0  0  0  0  0
   -1.3023    1.1311   -0.3371 N   0  0  0  0  0  2  0  0  0  0  0  0
   -2.3961    1.8505   -0.4788 C   0  0  0  0  0  3  0  0  0  0  0  0
   -2.2437    2.9278   -0.6801 H   0  0  0  0  0  0  0  0  0  0  0  0
   -3.7430    1.3572   -0.4016 C   0  0  0  0  0  0  0  0  0  0  0  0
   -4.0597    0.0151   -0.0038 C   0  0  0  0  0  0  0  0  0  0  0  0
   -3.1024   -0.8482    0.3400 O   0  5  0  0  0  0  0  0  0  0  0  0
   -5.3985   -0.4022    0.0727 C   0  0  0  0  0  0  0  0  0  0  0  0
   -5.6264   -1.4317    0.3784 H   0  0  0  0  0  0  0  0  0  0  0  0
   -6.4397    0.4900   -0.2372 C   0  0  0  0  0  0  0  0  0  0  0  0
   -7.7102    0.0251   -0.1447 O   0  0  0  0  0  0  0  0  0  0  0  0
   -8.3228    0.7426   -0.3931 H   0  0  0  0  0  0  0  0  0  0  0  0
   -6.1467    1.8203   -0.6230 C   0  0  0  0  0  0  0  0  0  0  0  0
   -6.9642    2.5183   -0.8635 H   0  0  0  0  0  0  0  0  0  0  0  0
   -4.8195    2.2332   -0.6957 C   0  0  0  0  0  0  0  0  0  0  0  0
   -4.5877    3.2664   -0.9971 H   0  0  0  0  0  0  0  0  0  0  0  0
  1  2  1  0  0  0  0
  1  5  1  0  0  0  0
  2  3  1  0  0  0  0
  3  4  1  0  0  0  0
  5  4  2  0  0  0  0
  6  5  1  0  0  0  0
  6 11  1  0  0  0  0
  7  6  1  0  0  0  0
  7  9  1  0  0  0  0
  7  8  1  0  0  0  0
 10  7  1  0  0  0  0
 11 20  1  0  0  0  0
 12 14  1  0  0  0  0
 12 11  2  0  0  0  0
 13 12  1  0  0  0  0
 14 16  2  0  0  0  0
 15 14  1  0  0  0  0
 16 17  1  0  0  0  0
 16 18  1  0  0  0  0
 18 19  1  0  0  0  0
 20 18  2  0  0  0  0
 20 21  1  0  0  0  0
 22 23  1  0  0  0  0
 22  2  2  0  0  0  0
 24 26  1  0  0  0  0
 24 23  1  0  0  0  0
 25 24  1  0  0  0  0
 26 27  1  0  0  0  0
 27 29  2  0  0  0  0
 27 28  1  0  0  0  0
 29 30  1  0  0  0  0
 31 32  1  0  0  0  0
 31 29  1  0  0  0  0
 33 32  1  0  0  0  0
 34 31  2  0  0  0  0
 35 34  1  0  0  0  0
 36 34  1  0  0  0  0
 36 26  2  0  0  0  0
 37 36  1  0  0  0  0
M  CHG  1  28  -1
M  END
