2,3,5
 OpenBabel05122313063D

 23 22  0  0  1  0  0  0  0  0999 V2000
   -3.6341    0.7879   -0.1473 S   0  0  0  0  0  0  0  0  0  0  0  0
    0.2086    0.9009   -0.0027 N   0  0  0  0  0  2  0  0  0  0  0  0
   -1.4409   -0.9124   -0.0278 N   0  0  0  0  0  2  0  0  0  0  0  0
   -1.0779    1.3767    0.0216 N   0  0  0  0  0  0  0  0  0  0  0  0
    2.2399   -0.9784    0.0261 O   0  5  0  0  0  0  0  0  0  0  0  0
    1.2100    1.7869    0.0186 C   0  0  1  0  0  3  0  0  0  0  0  0
    2.5766    1.3839    0.0332 C   0  0  0  0  0  0  0  0  0  0  0  0
    3.0267    0.0669    0.0320 C   0  0  0  0  0  0  0  0  0  0  0  0
   -1.9110    0.3542   -0.0423 C   0  0  0  0  0  0  0  0  0  0  0  0
   -4.4211   -0.7955    0.2807 C   0  0  0  0  0  0  0  0  0  0  0  0
    0.8520    3.2485    0.0257 C   0  0  0  0  0  0  0  0  0  0  0  0
    4.4989   -0.2647    0.0321 C   0  0  0  0  0  0  0  0  0  0  0  0
   -2.1068   -1.6673   -0.2082 H   0  0  0  0  0  0  0  0  0  0  0  0
    3.3285    2.1842    0.0383 H   0  0  0  0  0  0  0  0  0  0  0  0
   -4.0372   -1.1877    1.2432 H   0  0  0  0  0  0  0  0  0  0  0  0
   -4.2987   -1.5575   -0.5170 H   0  0  0  0  0  0  0  0  0  0  0  0
   -5.5017   -0.5810    0.3852 H   0  0  0  0  0  0  0  0  0  0  0  0
    0.2289    3.4980   -0.8571 H   0  0  0  0  0  0  0  0  0  0  0  0
    1.7587    3.8806    0.0345 H   0  0  0  0  0  0  0  0  0  0  0  0
    0.2205    3.4845    0.9064 H   0  0  0  0  0  0  0  0  0  0  0  0
    5.1295    0.6433    0.0434 H   0  0  0  0  0  0  0  0  0  0  0  0
    4.7567   -0.8670   -0.8649 H   0  0  0  0  0  0  0  0  0  0  0  0
    4.7524   -0.8865    0.9168 H   0  0  0  0  0  0  0  0  0  0  0  0
  1  9  1  0  0  0  0
  1 10  1  0  0  0  0
  2  4  1  0  0  0  0
  5  8  1  0  0  0  0
  6  2  1  6  0  0  0
  6 11  1  0  0  0  0
  6  7  1  0  0  0  0
  7 14  1  0  0  0  0
  8 12  1  0  0  0  0
  8  7  2  0  0  0  0
  9  3  1  0  0  0  0
  9  4  2  0  0  0  0
 10 17  1  0  0  0  0
 10 15  1  0  0  0  0
 11 19  1  0  0  0  0
 11 20  1  0  0  0  0
 12 21  1  0  0  0  0
 12 23  1  0  0  0  0
 13  3  1  0  0  0  0
 16 10  1  0  0  0  0
 18 11  1  0  0  0  0
 22 12  1  0  0  0  0
M  CHG  1   5  -1
M  END
