1,7,10
 OpenBabel05122313063D

 40 41  0  0  1  0  0  0  0  0999 V2000
    0.4915   -2.4516   -0.2573 O   0  0  0  0  0  1  0  0  0  0  0  0
    1.5383   -2.5116   -1.1801 C   0  0  0  0  0  0  0  0  0  0  0  0
    1.1600   -2.8378   -2.1793 H   0  0  0  0  0  0  0  0  0  0  0  0
    2.3117   -3.2487   -0.8634 H   0  0  0  0  0  0  0  0  0  0  0  0
    2.1940   -1.0991   -1.3480 C   0  0  1  0  0  0  0  0  0  0  0  0
    2.6495   -1.0652   -2.3652 H   0  0  0  0  0  0  0  0  0  0  0  0
    1.0595   -0.1900   -1.2212 N   0  0  0  0  0  2  0  0  0  0  0  0
    1.1279    1.0800   -0.7827 C   0  0  2  0  0  3  0  0  0  0  0  0
    2.1639    1.9372   -1.0581 N   0  0  0  0  0  0  0  0  0  0  0  0
    0.0792    1.3889    0.0201 N   0  0  0  0  0  2  0  0  0  0  0  0
   -0.4072    2.6948    0.1819 C   0  0  0  0  0  0  0  0  0  0  0  0
   -0.8684    3.1216    1.4487 C   0  0  0  0  0  0  0  0  0  0  0  0
   -0.7869    2.4292    2.2974 H   0  0  0  0  0  0  0  0  0  0  0  0
   -1.4097    4.4021    1.6224 C   0  0  0  0  0  0  0  0  0  0  0  0
   -1.7651    4.7080    2.6186 H   0  0  0  0  0  0  0  0  0  0  0  0
   -1.4934    5.2953    0.5419 C   0  0  0  0  0  0  0  0  0  0  0  0
   -1.9185    6.3004    0.6798 H   0  0  0  0  0  0  0  0  0  0  0  0
   -1.0214    4.8891   -0.7176 C   0  0  0  0  0  0  0  0  0  0  0  0
   -1.0799    5.5773   -1.5753 H   0  0  0  0  0  0  0  0  0  0  0  0
   -0.4863    3.6070   -0.9003 C   0  0  0  0  0  0  0  0  0  0  0  0
   -0.1328    3.2916   -1.8927 H   0  0  0  0  0  0  0  0  0  0  0  0
    2.5855    2.9729   -0.1325 C   0  0  0  0  0  0  0  0  0  0  0  0
    2.3657    3.9939   -0.5156 H   0  0  0  0  0  0  0  0  0  0  0  0
    3.6789    2.8805    0.0439 H   0  0  0  0  0  0  0  0  0  0  0  0
    2.0700    2.8481    0.8352 H   0  0  0  0  0  0  0  0  0  0  0  0
    2.9616    1.7762   -2.2580 C   0  0  0  0  0  0  0  0  0  0  0  0
    3.1284    2.7709   -2.7251 H   0  0  0  0  0  0  0  0  0  0  0  0
    2.4196    1.1420   -2.9823 H   0  0  0  0  0  0  0  0  0  0  0  0
    3.9536    1.3168   -2.0489 H   0  0  0  0  0  0  0  0  0  0  0  0
    3.3155   -0.8651   -0.3438 C   0  0  0  0  0  0  0  0  0  0  0  0
    4.6553   -1.0535   -0.7397 C   0  0  0  0  0  0  0  0  0  0  0  0
    4.8720   -1.3303   -1.7847 H   0  0  0  0  0  0  0  0  0  0  0  0
    5.7118   -0.8925    0.1702 C   0  0  0  0  0  0  0  0  0  0  0  0
    6.7500   -1.0434   -0.1637 H   0  0  0  0  0  0  0  0  0  0  0  0
    5.4437   -0.5349    1.5006 C   0  0  0  0  0  0  0  0  0  0  0  0
    6.2688   -0.4034    2.2171 H   0  0  0  0  0  0  0  0  0  0  0  0
    4.1134   -0.3459    1.9087 C   0  0  0  0  0  0  0  0  0  0  0  0
    3.8892   -0.0691    2.9505 H   0  0  0  0  0  0  0  0  0  0  0  0
    3.0594   -0.5095    0.9974 C   0  0  0  0  0  0  0  0  0  0  0  0
    2.0245   -0.3575    1.3443 H   0  0  0  0  0  0  0  0  0  0  0  0
  2  4  1  0  0  0  0
  2  1  1  0  0  0  0
  3  2  1  0  0  0  0
  5  6  1  6  0  0  0
  5  7  1  0  0  0  0
  5  2  1  0  0  0  0
  5 30  1  0  0  0  0
  8  7  1  1  0  0  0
  8 10  1  0  0  0  0
  9  8  1  0  0  0  0
  9 22  1  0  0  0  0
 10 11  1  0  0  0  0
 11 12  1  0  0  0  0
 12 14  2  0  0  0  0
 12 13  1  0  0  0  0
 14 15  1  0  0  0  0
 16 17  1  0  0  0  0
 16 14  1  0  0  0  0
 18 16  2  0  0  0  0
 19 18  1  0  0  0  0
 20 18  1  0  0  0  0
 20 11  2  0  0  0  0
 21 20  1  0  0  0  0
 22 24  1  0  0  0  0
 22 25  1  0  0  0  0
 23 22  1  0  0  0  0
 26 29  1  0  0  0  0
 26  9  1  0  0  0  0
 27 26  1  0  0  0  0
 28 26  1  0  0  0  0
 30 39  1  0  0  0  0
 31 30  2  0  0  0  0
 31 33  1  0  0  0  0
 32 31  1  0  0  0  0
 33 35  2  0  0  0  0
 34 33  1  0  0  0  0
 35 37  1  0  0  0  0
 35 36  1  0  0  0  0
 37 38  1  0  0  0  0
 39 40  1  0  0  0  0
 39 37  2  0  0  0  0
M  END
