1,2,3
 OpenBabel05122313063D

 56 58  0  0  1  0  0  0  0  0999 V2000
   -0.2706    0.8283   -0.9806 O   0  5  0  0  0  0  0  0  0  0  0  0
    0.4796   -1.8255   -0.9292 N   0  0  0  0  0  2  0  0  0  0  0  0
    3.1460   -1.2006    0.5110 N   0  0  0  0  0  2  0  0  0  0  0  0
   -1.5483    0.4767   -0.7599 C   0  0  0  0  0  0  0  0  0  0  0  0
   -2.5882    1.4490   -0.6929 C   0  0  0  0  0  0  0  0  0  0  0  0
   -3.8700    1.0001   -0.3266 C   0  0  0  0  0  0  0  0  0  0  0  0
   -4.6712    1.7429   -0.2511 H   0  0  0  0  0  0  0  0  0  0  0  0
   -4.1739   -0.3472   -0.0466 C   0  0  0  0  0  0  0  0  0  0  0  0
   -3.1451   -1.2833   -0.2168 C   0  0  0  0  0  0  0  0  0  0  0  0
   -3.3421   -2.3496   -0.0352 H   0  0  0  0  0  0  0  0  0  0  0  0
   -1.8441   -0.9099   -0.6094 C   0  0  0  0  0  0  0  0  0  0  0  0
   -0.8903   -1.9616   -1.0510 C   0  0  1  0  0  3  0  0  0  0  0  0
   -1.4454   -3.0632   -1.7231 C   0  0  0  0  0  0  0  0  0  0  0  0
   -2.5323   -3.1162   -1.8537 H   0  0  0  0  0  0  0  0  0  0  0  0
   -0.6091   -4.0240   -2.3206 C   0  0  0  0  0  0  0  0  0  0  0  0
   -1.0435   -4.8660   -2.8803 H   0  0  0  0  0  0  0  0  0  0  0  0
    0.7599   -3.8820   -2.2104 C   0  0  0  0  0  0  0  0  0  0  0  0
    1.4473   -4.6139   -2.6567 H   0  0  0  0  0  0  0  0  0  0  0  0
    1.3210   -2.7962   -1.4667 C   0  0  0  0  0  0  0  0  0  0  0  0
    2.7380   -2.8010   -1.3084 C   0  0  0  0  0  0  0  0  0  0  0  0
    3.2400   -3.5611   -1.9230 H   0  0  0  0  0  0  0  0  0  0  0  0
    3.5844   -2.1944   -0.3599 C   0  0  0  0  0  0  0  0  0  0  0  0
    4.9510   -2.6416   -0.2557 C   0  0  0  0  0  0  0  0  0  0  0  0
    5.3122   -3.3703   -0.9958 H   0  0  0  0  0  0  0  0  0  0  0  0
    5.7639   -2.2105    0.7708 C   0  0  0  0  0  0  0  0  0  0  0  0
    6.7989   -2.5765    0.8512 H   0  0  0  0  0  0  0  0  0  0  0  0
    5.2411   -1.3049    1.7362 C   0  0  0  0  0  0  0  0  0  0  0  0
    5.8364   -0.9580    2.5910 H   0  0  0  0  0  0  0  0  0  0  0  0
    3.9542   -0.8337    1.5498 C   0  0  0  0  0  0  0  0  0  0  0  0
    3.5336   -0.0898    2.2407 H   0  0  0  0  0  0  0  0  0  0  0  0
   -2.3273    2.9289   -1.0424 C   0  0  0  0  0  0  0  0  0  0  0  0
   -1.7052    3.0182   -2.4567 C   0  0  0  0  0  0  0  0  0  0  0  0
   -0.7535    2.4589   -2.5172 H   0  0  0  0  0  0  0  0  0  0  0  0
   -1.5077    4.0779   -2.7213 H   0  0  0  0  0  0  0  0  0  0  0  0
   -2.3978    2.6000   -3.2150 H   0  0  0  0  0  0  0  0  0  0  0  0
   -3.6283    3.7533   -1.0569 C   0  0  0  0  0  0  0  0  0  0  0  0
   -4.3632    3.3582   -1.7869 H   0  0  0  0  0  0  0  0  0  0  0  0
   -3.3964    4.7980   -1.3468 H   0  0  0  0  0  0  0  0  0  0  0  0
   -4.1130    3.7884   -0.0603 H   0  0  0  0  0  0  0  0  0  0  0  0
   -1.3785    3.5719   -0.0071 C   0  0  0  0  0  0  0  0  0  0  0  0
   -1.8520    3.5994    0.9952 H   0  0  0  0  0  0  0  0  0  0  0  0
   -1.1480    4.6185   -0.2978 H   0  0  0  0  0  0  0  0  0  0  0  0
   -0.4271    3.0182    0.0732 H   0  0  0  0  0  0  0  0  0  0  0  0
   -5.5829   -0.8178    0.3610 C   0  0  0  0  0  0  0  0  0  0  0  0
   -6.5580    0.3591    0.5382 C   0  0  0  0  0  0  0  0  0  0  0  0
   -6.2086    1.0675    1.3164 H   0  0  0  0  0  0  0  0  0  0  0  0
   -7.5521   -0.0194    0.8508 H   0  0  0  0  0  0  0  0  0  0  0  0
   -6.7004    0.9254   -0.4041 H   0  0  0  0  0  0  0  0  0  0  0  0
   -6.1376   -1.7475   -0.7436 C   0  0  0  0  0  0  0  0  0  0  0  0
   -6.1895   -1.2175   -1.7162 H   0  0  0  0  0  0  0  0  0  0  0  0
   -7.1586   -2.0981   -0.4848 H   0  0  0  0  0  0  0  0  0  0  0  0
   -5.4990   -2.6430   -0.8812 H   0  0  0  0  0  0  0  0  0  0  0  0
   -5.5166   -1.5955    1.6938 C   0  0  0  0  0  0  0  0  0  0  0  0
   -4.8267   -2.4603    1.6340 H   0  0  0  0  0  0  0  0  0  0  0  0
   -6.5204   -1.9817    1.9670 H   0  0  0  0  0  0  0  0  0  0  0  0
   -5.1646   -0.9431    2.5175 H   0  0  0  0  0  0  0  0  0  0  0  0
  1  4  1  0  0  0  0
  3 29  1  0  0  0  0
  4  5  2  0  0  0  0
  4 11  1  0  0  0  0
  5  6  1  0  0  0  0
  6  7  1  0  0  0  0
  6  8  2  0  0  0  0
  8 44  1  0  0  0  0
  9  8  1  0  0  0  0
  9 10  1  0  0  0  0
 11  9  2  0  0  0  0
 12  2  1  0  0  0  0
 12 11  1  6  0  0  0
 13 12  1  0  0  0  0
 14 13  1  0  0  0  0
 15 17  1  0  0  0  0
 15 13  2  0  0  0  0
 16 15  1  0  0  0  0
 17 19  2  0  0  0  0
 18 17  1  0  0  0  0
 19 20  1  0  0  0  0
 19  2  1  0  0  0  0
 20 22  2  0  0  0  0
 21 20  1  0  0  0  0
 22 23  1  0  0  0  0
 22  3  1  0  0  0  0
 23 25  2  0  0  0  0
 24 23  1  0  0  0  0
 25 26  1  0  0  0  0
 25 27  1  0  0  0  0
 27 28  1  0  0  0  0
 29 27  2  0  0  0  0
 29 30  1  0  0  0  0
 31  5  1  0  0  0  0
 31 40  1  0  0  0  0
 32 31  1  0  0  0  0
 33 32  1  0  0  0  0
 34 32  1  0  0  0  0
 35 32  1  0  0  0  0
 36 31  1  0  0  0  0
 36 39  1  0  0  0  0
 37 36  1  0  0  0  0
 38 36  1  0  0  0  0
 40 43  1  0  0  0  0
 40 41  1  0  0  0  0
 42 40  1  0  0  0  0
 44 45  1  0  0  0  0
 44 53  1  0  0  0  0
 45 47  1  0  0  0  0
 45 46  1  0  0  0  0
 48 45  1  0  0  0  0
 49 51  1  0  0  0  0
 49 44  1  0  0  0  0
 50 49  1  0  0  0  0
 52 49  1  0  0  0  0
 53 55  1  0  0  0  0
 53 56  1  0  0  0  0
 54 53  1  0  0  0  0
M  CHG  1   1  -1
M  END
