1,2,4
 OpenBabel05122313063D

 26 25  0  0  0  0  0  0  0  0999 V2000
    1.3290   -0.0519    0.5506 O   0  5  0  0  0  0  0  0  0  0  0  0
   -0.2282    1.0527   -1.5447 N   0  0  0  0  0  2  0  0  0  0  0  0
    3.8048   -1.2142    0.8541 F   0  0  0  0  0  0  0  0  0  0  0  0
   -1.4295    1.6972    0.8802 N   0  0  0  0  0  0  0  0  0  0  0  0
    4.6778    0.2596   -0.4985 F   0  0  0  0  0  0  0  0  0  0  0  0
    3.8266    0.8963    1.4122 F   0  0  0  0  0  0  0  0  0  0  0  0
   -2.8467    1.6159    1.2966 C   0  0  0  0  0  0  0  0  0  0  0  0
   -3.4910    1.4118    0.4223 H   0  0  0  0  0  0  0  0  0  0  0  0
   -2.9750    0.7859    2.0157 H   0  0  0  0  0  0  0  0  0  0  0  0
   -3.1727    2.5685    1.7741 H   0  0  0  0  0  0  0  0  0  0  0  0
   -0.5814    2.0124    2.0504 C   0  0  0  0  0  0  0  0  0  0  0  0
    0.4855    1.9517    1.7663 H   0  0  0  0  0  0  0  0  0  0  0  0
   -0.8117    3.0243    2.4553 H   0  0  0  0  0  0  0  0  0  0  0  0
   -0.7639    1.2603    2.8408 H   0  0  0  0  0  0  0  0  0  0  0  0
    2.1904    0.7793   -1.5423 C   0  0  0  0  0  0  0  0  0  0  0  0
    3.1157    0.9966   -2.0885 H   0  0  0  0  0  0  0  0  0  0  0  0
    0.9756    1.3425   -2.0056 C   0  0  0  0  0  3  0  0  0  0  0  0
    1.0476    2.1627   -2.7530 H   0  0  0  0  0  0  0  0  0  0  0  0
    2.2838    0.2344   -0.2563 C   0  0  0  0  0  0  0  0  0  0  0  0
    3.6703    0.0378    0.3762 C   0  0  0  0  0  0  0  0  0  0  0  0
   -1.2538    2.0858   -1.5958 C   0  0  0  0  0  0  0  0  0  0  0  0
   -2.2390    1.6352   -1.8358 H   0  0  0  0  0  0  0  0  0  0  0  0
   -1.0280    2.8668   -2.3571 H   0  0  0  0  0  0  0  0  0  0  0  0
   -1.2639    2.7248   -0.1955 C   0  0  0  0  0  0  0  0  0  0  0  0
   -0.2842    3.2198   -0.0455 H   0  0  0  0  0  0  0  0  0  0  0  0
   -2.0514    3.5051   -0.1040 H   0  0  0  0  0  0  0  0  0  0  0  0
  4  7  1  0  0  0  0
  4 11  1  0  0  0  0
  5 20  1  0  0  0  0
  7 10  1  0  0  0  0
  7  9  1  0  0  0  0
  8  7  1  0  0  0  0
 11 13  1  0  0  0  0
 11 14  1  0  0  0  0
 12 11  1  0  0  0  0
 15 19  2  0  0  0  0
 16 15  1  0  0  0  0
 17  2  1  0  0  0  0
 17 15  1  0  0  0  0
 18 17  1  0  0  0  0
 19 20  1  0  0  0  0
 19  1  1  0  0  0  0
 20  3  1  0  0  0  0
 20  6  1  0  0  0  0
 21  2  1  0  0  0  0
 21 24  1  0  0  0  0
 22 21  1  0  0  0  0
 23 21  1  0  0  0  0
 24 26  1  0  0  0  0
 24 25  1  0  0  0  0
 24  4  1  0  0  0  0
M  CHG  1   1  -1
M  END
