23,24,26
 OpenBabel05122313063D

 28 29  0  0  0  0  0  0  0  0999 V2000
    2.1225    2.8263   -0.5274 C   0  0  0  0  0  3  0  0  0  0  0  0
    2.4658    2.5786    0.4883 H   0  0  0  0  0  0  0  0  0  0  0  0
    2.7950    3.7659   -1.3181 C   0  0  0  0  0  0  0  0  0  0  0  0
    3.6834    4.2742   -0.9187 H   0  0  0  0  0  0  0  0  0  0  0  0
    2.3127    4.0318   -2.6125 C   0  0  0  0  0  0  0  0  0  0  0  0
    2.8179    4.7655   -3.2582 H   0  0  0  0  0  0  0  0  0  0  0  0
    1.1841    3.3478   -3.0725 C   0  0  0  0  0  0  0  0  0  0  0  0
    0.7805    3.5224   -4.0801 H   0  0  0  0  0  0  0  0  0  0  0  0
    0.5474    2.4064   -2.2345 C   0  0  0  0  0  0  0  0  0  0  0  0
   -0.6034    1.6191   -2.5697 C   0  0  0  0  0  3  0  0  0  0  0  0
   -1.1293    1.6461   -3.5353 H   0  0  0  0  0  0  0  0  0  0  0  0
   -2.1296   -0.7195   -0.5424 C   0  0  0  0  0  0  0  0  0  0  0  0
   -3.2132   -1.7130   -0.4185 C   0  0  0  0  0  0  0  0  0  0  0  0
   -4.1235   -1.9343   -1.4749 C   0  0  0  0  0  0  0  0  0  0  0  0
   -4.0068   -1.3504   -2.3985 H   0  0  0  0  0  0  0  0  0  0  0  0
   -5.1459   -2.8768   -1.3434 C   0  0  0  0  0  0  0  0  0  0  0  0
   -5.8540   -3.0468   -2.1718 H   0  0  0  0  0  0  0  0  0  0  0  0
   -5.2770   -3.6189   -0.1496 C   0  0  0  0  0  0  0  0  0  0  0  0
   -4.3702   -3.4041    0.9105 C   0  0  0  0  0  0  0  0  0  0  0  0
   -4.4874   -3.9932    1.8314 H   0  0  0  0  0  0  0  0  0  0  0  0
   -3.3519   -2.4612    0.7722 C   0  0  0  0  0  0  0  0  0  0  0  0
   -2.6350   -2.2822    1.5863 H   0  0  0  0  0  0  0  0  0  0  0  0
    1.0301    2.1655   -0.9576 N   0  0  0  0  0  2  0  0  0  0  0  0
   -0.9825    0.8092   -1.5843 N   0  0  0  0  0  2  0  0  0  0  0  0
   -2.0332   -0.0199   -1.6962 N   0  0  0  0  0  0  0  0  0  0  0  0
   -1.3172   -0.5494    0.4430 O   0  5  0  0  0  0  0  0  0  0  0  0
   -6.2526   -4.5478    0.0301 O   0  0  0  0  0  0  0  0  0  0  0  0
   -6.7930   -4.5875   -0.7811 H   0  0  0  0  0  0  0  0  0  0  0  0
  1  2  1  0  0  0  0
  3  4  1  0  0  0  0
  3  1  1  0  0  0  0
  5  3  2  0  0  0  0
  6  5  1  0  0  0  0
  7  5  1  0  0  0  0
  7  9  2  0  0  0  0
  8  7  1  0  0  0  0
  9 23  1  0  0  0  0
 10  9  1  0  0  0  0
 10 24  1  0  0  0  0
 11 10  1  0  0  0  0
 12 13  1  0  0  0  0
 12 26  1  0  0  0  0
 13 21  1  0  0  0  0
 14 16  1  0  0  0  0
 14 13  2  0  0  0  0
 15 14  1  0  0  0  0
 16 18  2  0  0  0  0
 17 16  1  0  0  0  0
 18 27  1  0  0  0  0
 18 19  1  0  0  0  0
 19 20  1  0  0  0  0
 21 19  2  0  0  0  0
 21 22  1  0  0  0  0
 23  1  1  0  0  0  0
 25 24  1  0  0  0  0
 25 12  2  0  0  0  0
 28 27  1  0  0  0  0
M  CHG  1  26  -1
M  END
