2,3,4
 OpenBabel05122313063D

 30 31  0  0  1  0  0  0  0  0999 V2000
   -3.2107   -1.4602    0.9704 Br  0  0  0  0  0  0  0  0  0  0  0  0
   -0.8625   -0.6012   -1.0019 O   0  0  0  0  0  1  0  0  0  0  0  0
    3.2279    0.0658   -0.2205 N   0  0  0  0  0  2  0  0  0  0  0  0
    0.9107    1.2584   -0.4171 N   0  0  0  0  0  2  0  0  0  0  0  0
   -0.4118    1.5295   -0.3237 N   0  0  0  0  0  0  0  0  0  0  0  0
   -0.7700    2.4158    0.0500 H   0  0  0  0  0  0  0  0  0  0  0  0
    1.4770    2.8362    1.2754 N   0  0  0  0  0  0  0  0  0  0  0  0
    0.5636    2.7078    1.7278 H   0  0  0  0  0  0  0  0  0  0  0  0
    2.2026    2.9845    1.9810 H   0  0  0  0  0  0  0  0  0  0  0  0
    4.4134   -0.5231   -0.4061 C   0  0  0  0  0  3  0  0  0  0  0  0
    4.3545   -1.5612   -0.7809 H   0  0  0  0  0  0  0  0  0  0  0  0
    5.6199    0.1470   -0.1395 C   0  0  0  0  0  0  0  0  0  0  0  0
    6.5813   -0.3635   -0.2941 H   0  0  0  0  0  0  0  0  0  0  0  0
    5.5653    1.4688    0.3237 C   0  0  0  0  0  0  0  0  0  0  0  0
    6.4903    2.0261    0.5351 H   0  0  0  0  0  0  0  0  0  0  0  0
    4.3163    2.0852    0.5032 C   0  0  0  0  0  0  0  0  0  0  0  0
    4.2478    3.1337    0.8300 H   0  0  0  0  0  0  0  0  0  0  0  0
    3.1613    1.3399    0.2155 C   0  0  0  0  0  0  0  0  0  0  0  0
    1.7713    1.8503    0.3607 C   0  0  1  0  0  3  0  0  0  0  0  0
   -1.2806    0.5140   -0.6793 C   0  0  1  0  0  3  0  0  0  0  0  0
   -2.7250    0.8924   -0.6479 C   0  0  0  0  0  0  0  0  0  0  0  0
   -3.6970    0.0896   -0.0027 C   0  0  0  0  0  0  0  0  0  0  0  0
   -5.0512    0.4634   -0.0320 C   0  0  0  0  0  0  0  0  0  0  0  0
   -5.7905   -0.1673    0.4815 H   0  0  0  0  0  0  0  0  0  0  0  0
   -5.4479    1.6291   -0.7026 C   0  0  0  0  0  0  0  0  0  0  0  0
   -6.5132    1.9043   -0.7221 H   0  0  0  0  0  0  0  0  0  0  0  0
   -4.4960    2.4375   -1.3425 C   0  0  0  0  0  0  0  0  0  0  0  0
   -4.8048    3.3481   -1.8762 H   0  0  0  0  0  0  0  0  0  0  0  0
   -3.1457    2.0681   -1.3079 C   0  0  0  0  0  0  0  0  0  0  0  0
   -2.3949    2.6795   -1.8327 H   0  0  0  0  0  0  0  0  0  0  0  0
  3 18  1  0  0  0  0
  4  5  1  0  0  0  0
  5  6  1  0  0  0  0
  7  8  1  0  0  0  0
  7  9  1  0  0  0  0
 10  3  1  0  0  0  0
 10 12  1  0  0  0  0
 11 10  1  0  0  0  0
 12 14  2  0  0  0  0
 13 12  1  0  0  0  0
 14 16  1  0  0  0  0
 14 15  1  0  0  0  0
 16 17  1  0  0  0  0
 18 19  1  0  0  0  0
 18 16  2  0  0  0  0
 19  4  1  1  0  0  0
 19  7  1  0  0  0  0
 20  2  1  6  0  0  0
 20 21  1  0  0  0  0
 20  5  1  0  0  0  0
 21 22  1  0  0  0  0
 22  1  1  0  0  0  0
 23 22  2  0  0  0  0
 23 24  1  0  0  0  0
 25 23  1  0  0  0  0
 26 25  1  0  0  0  0
 27 29  1  0  0  0  0
 27 25  2  0  0  0  0
 28 27  1  0  0  0  0
 29 21  2  0  0  0  0
 30 29  1  0  0  0  0
M  END
