1,3,4
 OpenBabel05122313063D

 72 75  0  0  1  0  0  0  0  0999 V2000
    0.6376   -1.1602    0.3745 O   0  5  0  0  0  0  0  0  0  0  0  0
   -3.4175   -0.4627   -0.4893 C   0  0  0  0  0  0  0  0  0  0  0  0
   -0.7321    0.8439   -0.7898 N   0  0  0  0  0  2  0  0  0  0  0  0
   -2.4491   -0.9609    0.3985 N   0  0  0  0  0  2  0  0  0  0  0  0
    5.4396    1.7781   -0.6627 C   0  0  0  0  0  0  0  0  0  0  0  0
   -3.1374    0.7052   -1.2600 C   0  0  0  0  0  0  0  0  0  0  0  0
    1.7765   -0.4763    0.1656 C   0  0  0  0  0  0  0  0  0  0  0  0
    1.7015    0.8546   -0.3423 C   0  0  0  0  0  0  0  0  0  0  0  0
    0.4092    1.5479   -0.5520 C   0  0  2  0  0  3  0  0  0  0  0  0
   -1.9827    2.8983   -1.0074 C   0  0  0  0  0  0  0  0  0  0  0  0
   -2.9524    3.3894   -1.1594 H   0  0  0  0  0  0  0  0  0  0  0  0
    4.1864   -0.3115    0.2133 C   0  0  0  0  0  0  0  0  0  0  0  0
    5.1581   -0.7640    0.4357 H   0  0  0  0  0  0  0  0  0  0  0  0
   -2.6010    0.5731    2.2578 C   0  0  0  0  0  0  0  0  0  0  0  0
    4.1609    0.9849   -0.3375 C   0  0  0  0  0  0  0  0  0  0  0  0
   -1.8501   -1.8572    2.6371 C   0  0  0  0  0  0  0  0  0  0  0  0
   -2.1120   -1.8083    3.7117 H   0  0  0  0  0  0  0  0  0  0  0  0
   -0.7758   -1.6102    2.5325 H   0  0  0  0  0  0  0  0  0  0  0  0
   -1.9873   -2.8909    2.2678 H   0  0  0  0  0  0  0  0  0  0  0  0
    3.0334   -1.0737    0.4727 C   0  0  0  0  0  0  0  0  0  0  0  0
   -1.9070    1.4934   -1.0222 C   0  0  0  0  0  0  0  0  0  0  0  0
    3.1383   -2.5149    1.0113 C   0  0  0  0  0  0  0  0  0  0  0  0
   -3.7466    1.3884    2.3261 C   0  0  0  0  0  0  0  0  0  0  0  0
   -4.7382    0.9371    2.1628 H   0  0  0  0  0  0  0  0  0  0  0  0
   -0.8308    3.6375   -0.7285 C   0  0  0  0  0  0  0  0  0  0  0  0
   -0.8718    4.7351   -0.6679 H   0  0  0  0  0  0  0  0  0  0  0  0
    2.9047    1.5450   -0.6006 C   0  0  0  0  0  0  0  0  0  0  0  0
    2.8490    2.5443   -1.0544 H   0  0  0  0  0  0  0  0  0  0  0  0
   -5.3168    0.4819   -2.3515 C   0  0  0  0  0  0  0  0  0  0  0  0
   -6.0425    0.8344   -3.0991 H   0  0  0  0  0  0  0  0  0  0  0  0
   -5.6059   -0.6470   -1.5612 C   0  0  0  0  0  0  0  0  0  0  0  0
   -6.5608   -1.1794   -1.6859 H   0  0  0  0  0  0  0  0  0  0  0  0
    2.7009   -3.4983   -0.1000 C   0  0  0  0  0  0  0  0  0  0  0  0
    2.8178   -4.5436    0.2543 H   0  0  0  0  0  0  0  0  0  0  0  0
    3.3281   -3.3715   -1.0058 H   0  0  0  0  0  0  0  0  0  0  0  0
    1.6396   -3.3661   -0.3808 H   0  0  0  0  0  0  0  0  0  0  0  0
    0.3658    2.9621   -0.4966 C   0  0  0  0  0  0  0  0  0  0  0  0
    1.2741    3.5201   -0.2390 H   0  0  0  0  0  0  0  0  0  0  0  0
   -4.6648   -1.1133   -0.6412 C   0  0  0  0  0  0  0  0  0  0  0  0
   -4.8581   -2.0158   -0.0428 H   0  0  0  0  0  0  0  0  0  0  0  0
   -4.0989    1.1489   -2.1950 C   0  0  0  0  0  0  0  0  0  0  0  0
   -3.8695    2.0222   -2.8235 H   0  0  0  0  0  0  0  0  0  0  0  0
   -1.3363    1.1655    2.4524 C   0  0  0  0  0  0  0  0  0  0  0  0
   -0.4277    0.5495    2.3789 H   0  0  0  0  0  0  0  0  0  0  0  0
   -2.3734    3.3420    2.7823 C   0  0  0  0  0  0  0  0  0  0  0  0
   -2.2836    4.4197    2.9879 H   0  0  0  0  0  0  0  0  0  0  0  0
   -3.6366    2.7634    2.5879 C   0  0  0  0  0  0  0  0  0  0  0  0
   -4.5436    3.3851    2.6399 H   0  0  0  0  0  0  0  0  0  0  0  0
   -2.7283   -0.8922    1.8444 C   0  0  2  0  0  0  0  0  0  0  0  0
   -3.7933   -1.1875    1.9894 H   0  0  0  0  0  0  0  0  0  0  0  0
    5.4260    3.1136    0.1152 C   0  0  0  0  0  0  0  0  0  0  0  0
    5.3899    2.9347    1.2089 H   0  0  0  0  0  0  0  0  0  0  0  0
    4.5510    3.7386   -0.1540 H   0  0  0  0  0  0  0  0  0  0  0  0
    6.3391    3.7032   -0.1083 H   0  0  0  0  0  0  0  0  0  0  0  0
    4.5856   -2.8626    1.4115 C   0  0  0  0  0  0  0  0  0  0  0  0
    4.9777   -2.1816    2.1944 H   0  0  0  0  0  0  0  0  0  0  0  0
    5.2801   -2.8379    0.5477 H   0  0  0  0  0  0  0  0  0  0  0  0
    4.6110   -3.8924    1.8196 H   0  0  0  0  0  0  0  0  0  0  0  0
   -1.2235    2.5370    2.7161 C   0  0  0  0  0  0  0  0  0  0  0  0
   -0.2279    2.9825    2.8643 H   0  0  0  0  0  0  0  0  0  0  0  0
    6.7136    1.0069   -0.2761 C   0  0  0  0  0  0  0  0  0  0  0  0
    7.6081    1.6142   -0.5209 H   0  0  0  0  0  0  0  0  0  0  0  0
    6.8007    0.0495   -0.8280 H   0  0  0  0  0  0  0  0  0  0  0  0
    6.7484    0.7841    0.8095 H   0  0  0  0  0  0  0  0  0  0  0  0
    2.2512   -2.7088    2.2635 C   0  0  0  0  0  0  0  0  0  0  0  0
    2.5001   -1.9649    3.0482 H   0  0  0  0  0  0  0  0  0  0  0  0
    2.4218   -3.7198    2.6866 H   0  0  0  0  0  0  0  0  0  0  0  0
    1.1780   -2.6237    2.0193 H   0  0  0  0  0  0  0  0  0  0  0  0
    5.4844    2.0649   -2.1809 C   0  0  0  0  0  0  0  0  0  0  0  0
    4.6073    2.6548   -2.5144 H   0  0  0  0  0  0  0  0  0  0  0  0
    5.4943    1.1207   -2.7616 H   0  0  0  0  0  0  0  0  0  0  0  0
    6.3966    2.6410   -2.4411 H   0  0  0  0  0  0  0  0  0  0  0  0
  2  4  1  0  0  0  0
  3  9  1  0  0  0  0
  4 49  1  0  0  0  0
  5 15  1  0  0  0  0
  5 61  1  0  0  0  0
  5 51  1  0  0  0  0
  6 21  1  0  0  0  0
  6  2  2  0  0  0  0
  7  1  1  0  0  0  0
  7 20  1  0  0  0  0
  8  7  2  0  0  0  0
  9 37  1  0  0  0  0
  9  8  1  1  0  0  0
 10 25  1  0  0  0  0
 11 10  1  0  0  0  0
 12 13  1  0  0  0  0
 12 20  2  0  0  0  0
 14 23  2  0  0  0  0
 14 43  1  0  0  0  0
 15 12  1  0  0  0  0
 16 17  1  0  0  0  0
 18 16  1  0  0  0  0
 19 16  1  0  0  0  0
 20 22  1  0  0  0  0
 21 10  2  0  0  0  0
 21  3  1  0  0  0  0
 22 55  1  0  0  0  0
 22 65  1  0  0  0  0
 23 47  1  0  0  0  0
 24 23  1  0  0  0  0
 25 26  1  0  0  0  0
 25 37  2  0  0  0  0
 27  8  1  0  0  0  0
 27 15  2  0  0  0  0
 28 27  1  0  0  0  0
 29 41  2  0  0  0  0
 29 31  1  0  0  0  0
 30 29  1  0  0  0  0
 31 39  2  0  0  0  0
 32 31  1  0  0  0  0
 33 34  1  0  0  0  0
 33 22  1  0  0  0  0
 35 33  1  0  0  0  0
 36 33  1  0  0  0  0
 37 38  1  0  0  0  0
 39  2  1  0  0  0  0
 39 40  1  0  0  0  0
 41  6  1  0  0  0  0
 42 41  1  0  0  0  0
 43 59  2  0  0  0  0
 44 43  1  0  0  0  0
 45 46  1  0  0  0  0
 47 48  1  0  0  0  0
 47 45  2  0  0  0  0
 49 50  1  1  0  0  0
 49 14  1  0  0  0  0
 49 16  1  0  0  0  0
 51 52  1  0  0  0  0
 53 51  1  0  0  0  0
 54 51  1  0  0  0  0
 55 58  1  0  0  0  0
 55 56  1  0  0  0  0
 57 55  1  0  0  0  0
 59 45  1  0  0  0  0
 59 60  1  0  0  0  0
 61 64  1  0  0  0  0
 62 61  1  0  0  0  0
 63 61  1  0  0  0  0
 65 67  1  0  0  0  0
 65 66  1  0  0  0  0
 68 65  1  0  0  0  0
 69  5  1  0  0  0  0
 70 69  1  0  0  0  0
 71 69  1  0  0  0  0
 72 69  1  0  0  0  0
M  CHG  1   1  -1
M  END
