1,58,64
 OpenBabel05122313063D

 69 70  0  0  1  0  0  0  0  0999 V2000
   -0.1724   -0.3675    2.4893 O   0  5  0  0  0  0  0  0  0  0  0  0
    0.6865    1.0642    0.7245 C   0  0  1  0  0  0  0  0  0  0  0  0
    1.2938    1.9701    0.6724 H   0  0  0  0  0  0  0  0  0  0  0  0
    0.4641    0.7235    2.2610 C   0  0  0  0  0  0  0  0  0  0  0  0
    0.9413    1.5260    3.0630 O   0  0  0  0  0  0  0  0  0  0  0  0
    1.2563   -4.3146    0.1019 C   0  0  0  0  0  0  0  0  0  0  0  0
    1.0560   -5.3657   -0.1909 H   0  0  0  0  0  0  0  0  0  0  0  0
    0.4232   -3.9883    0.7548 H   0  0  0  0  0  0  0  0  0  0  0  0
    2.1994   -4.2904    0.6840 H   0  0  0  0  0  0  0  0  0  0  0  0
    2.4744   -3.9743   -2.0747 C   0  0  0  0  0  0  0  0  0  0  0  0
    2.2122   -4.9965   -2.4123 H   0  0  0  0  0  0  0  0  0  0  0  0
    3.4460   -4.0404   -1.5445 H   0  0  0  0  0  0  0  0  0  0  0  0
    2.6114   -3.3413   -2.9750 H   0  0  0  0  0  0  0  0  0  0  0  0
    0.0197   -3.4392   -1.9233 C   0  0  0  0  0  0  0  0  0  0  0  0
   -0.2038   -4.4672   -2.2732 H   0  0  0  0  0  0  0  0  0  0  0  0
    0.0526   -2.7701   -2.8068 H   0  0  0  0  0  0  0  0  0  0  0  0
   -0.8176   -3.1298   -1.2686 H   0  0  0  0  0  0  0  0  0  0  0  0
    1.3614   -3.4277   -1.1614 C   0  0  0  0  0  0  0  0  0  0  0  0
   -5.0121    1.1489   -1.3011 C   0  0  0  0  0  0  0  0  0  0  0  0
   -5.9699    0.6044   -1.4171 H   0  0  0  0  0  0  0  0  0  0  0  0
   -4.6842    1.4726   -2.3098 H   0  0  0  0  0  0  0  0  0  0  0  0
   -5.2121    2.0538   -0.6922 H   0  0  0  0  0  0  0  0  0  0  0  0
   -4.4858   -0.1949    0.7616 C   0  0  0  0  0  0  0  0  0  0  0  0
   -5.4656   -0.7044    0.6613 H   0  0  0  0  0  0  0  0  0  0  0  0
   -4.6169    0.6829    1.4256 H   0  0  0  0  0  0  0  0  0  0  0  0
   -3.7925   -0.9092    1.2471 H   0  0  0  0  0  0  0  0  0  0  0  0
   -3.7455   -1.0164   -1.5132 C   0  0  0  0  0  0  0  0  0  0  0  0
   -4.7096   -1.5385   -1.6803 H   0  0  0  0  0  0  0  0  0  0  0  0
   -3.0647   -1.7368   -1.0196 H   0  0  0  0  0  0  0  0  0  0  0  0
   -3.3249   -0.7397   -2.5011 H   0  0  0  0  0  0  0  0  0  0  0  0
   -3.9722    0.2325   -0.6322 C   0  0  0  0  0  0  0  0  0  0  0  0
    4.4238    1.4418   -1.3892 C   0  0  0  0  0  0  0  0  0  0  0  0
    5.2853    2.1258   -1.2474 H   0  0  0  0  0  0  0  0  0  0  0  0
    3.6317    1.9962   -1.9306 H   0  0  0  0  0  0  0  0  0  0  0  0
    4.7521    0.6043   -2.0359 H   0  0  0  0  0  0  0  0  0  0  0  0
    3.5860    2.1373    0.8846 C   0  0  0  0  0  0  0  0  0  0  0  0
    4.5320    2.6568    1.1350 H   0  0  0  0  0  0  0  0  0  0  0  0
    3.0982    1.8490    1.8369 H   0  0  0  0  0  0  0  0  0  0  0  0
    2.9520    2.8898    0.3775 H   0  0  0  0  0  0  0  0  0  0  0  0
    5.0636    0.1514    0.6810 C   0  0  0  0  0  0  0  0  0  0  0  0
    5.9264    0.8274    0.8473 H   0  0  0  0  0  0  0  0  0  0  0  0
    5.4168   -0.7042    0.0745 H   0  0  0  0  0  0  0  0  0  0  0  0
    4.7330   -0.2368    1.6646 H   0  0  0  0  0  0  0  0  0  0  0  0
    3.9204    0.9315   -0.0183 C   0  0  0  0  0  0  0  0  0  0  0  0
   -1.0737    4.8973   -1.3084 C   0  0  0  0  0  0  0  0  0  0  0  0
   -0.4825    5.8263   -1.4304 H   0  0  0  0  0  0  0  0  0  0  0  0
   -1.9609    5.1408   -0.6915 H   0  0  0  0  0  0  0  0  0  0  0  0
   -1.4201    4.5811   -2.3123 H   0  0  0  0  0  0  0  0  0  0  0  0
    1.0040    3.5484   -1.5743 C   0  0  0  0  0  0  0  0  0  0  0  0
    1.6289    4.4597   -1.6661 H   0  0  0  0  0  0  0  0  0  0  0  0
    0.6520    3.2665   -2.5866 H   0  0  0  0  0  0  0  0  0  0  0  0
    1.6543    2.7296   -1.2175 H   0  0  0  0  0  0  0  0  0  0  0  0
    0.2372    4.3583    0.7446 C   0  0  0  0  0  0  0  0  0  0  0  0
    0.8773    5.2538    0.6114 H   0  0  0  0  0  0  0  0  0  0  0  0
    0.7871    3.6335    1.3752 H   0  0  0  0  0  0  0  0  0  0  0  0
   -0.6545    4.6607    1.3289 H   0  0  0  0  0  0  0  0  0  0  0  0
   -0.1998    3.8158   -0.6407 C   0  0  0  0  0  0  0  0  0  0  0  0
    0.8091   -1.1758   -0.1834 N   0  0  0  0  0  2  0  0  0  0  0  0
    1.7099   -2.0096   -0.7415 C   0  0  1  0  0  3  0  0  0  0  0  0
    1.4504    0.0016    0.0664 N   0  0  0  0  0  0  0  0  0  0  0  0
    2.9553   -1.3506   -0.8093 C   0  0  0  0  0  0  0  0  0  0  0  0
    3.8894   -1.7626   -1.1987 H   0  0  0  0  0  0  0  0  0  0  0  0
    2.7875   -0.0728   -0.2567 C   0  0  0  0  0  0  0  0  0  0  0  0
   -1.5706    0.4257    0.0692 N   0  0  0  0  0  2  0  0  0  0  0  0
   -2.6629    0.9881   -0.4760 C   0  0  2  0  0  3  0  0  0  0  0  0
   -0.5740    1.3577    0.0465 N   0  0  0  0  0  0  0  0  0  0  0  0
   -2.3568    2.3224   -0.8363 C   0  0  0  0  0  0  0  0  0  0  0  0
   -3.0325    3.0455   -1.2964 H   0  0  0  0  0  0  0  0  0  0  0  0
   -1.0228    2.5474   -0.4880 C   0  0  0  0  0  0  0  0  0  0  0  0
  2  3  1  6  0  0  0
  2  4  1  0  0  0  0
  4  1  1  0  0  0  0
  4  5  2  0  0  0  0
  6  9  1  0  0  0  0
  6  8  1  0  0  0  0
  7  6  1  0  0  0  0
 10 12  1  0  0  0  0
 10 18  1  0  0  0  0
 11 10  1  0  0  0  0
 13 10  1  0  0  0  0
 14 17  1  0  0  0  0
 14 18  1  0  0  0  0
 15 14  1  0  0  0  0
 16 14  1  0  0  0  0
 18  6  1  0  0  0  0
 19 22  1  0  0  0  0
 19 31  1  0  0  0  0
 20 19  1  0  0  0  0
 21 19  1  0  0  0  0
 23 26  1  0  0  0  0
 23 25  1  0  0  0  0
 24 23  1  0  0  0  0
 27 29  1  0  0  0  0
 27 31  1  0  0  0  0
 28 27  1  0  0  0  0
 30 27  1  0  0  0  0
 31 23  1  0  0  0  0
 32 33  1  0  0  0  0
 32 44  1  0  0  0  0
 34 32  1  0  0  0  0
 35 32  1  0  0  0  0
 36 37  1  0  0  0  0
 36 38  1  0  0  0  0
 39 36  1  0  0  0  0
 40 41  1  0  0  0  0
 40 43  1  0  0  0  0
 42 40  1  0  0  0  0
 44 40  1  0  0  0  0
 44 36  1  0  0  0  0
 45 47  1  0  0  0  0
 45 57  1  0  0  0  0
 46 45  1  0  0  0  0
 48 45  1  0  0  0  0
 49 52  1  0  0  0  0
 49 57  1  0  0  0  0
 50 49  1  0  0  0  0
 51 49  1  0  0  0  0
 53 56  1  0  0  0  0
 53 55  1  0  0  0  0
 54 53  1  0  0  0  0
 57 69  1  0  0  0  0
 57 53  1  0  0  0  0
 58 60  1  0  0  0  0
 59 18  1  1  0  0  0
 59 58  1  0  0  0  0
 60  2  1  0  0  0  0
 61 59  1  0  0  0  0
 61 63  2  0  0  0  0
 62 61  1  0  0  0  0
 63 44  1  0  0  0  0
 63 60  1  0  0  0  0
 65 31  1  1  0  0  0
 65 64  1  0  0  0  0
 66 64  1  0  0  0  0
 66  2  1  0  0  0  0
 67 69  2  0  0  0  0
 67 65  1  0  0  0  0
 68 67  1  0  0  0  0
 69 66  1  0  0  0  0
M  CHG  1   1  -1
M  END
