1,4,5
 OpenBabel05122313063D

 38 39  0  0  0  0  0  0  0  0999 V2000
   -0.8549    1.2488   -0.0002 O   0  5  0  0  0  0  0  0  0  0  0  0
   -3.4046    1.8271    0.1218 O   0  0  0  0  0  0  0  0  0  0  0  0
    4.5274   -2.1548   -2.0777 O   0  0  0  0  0  0  0  0  0  0  0  0
    1.7671    2.1670    0.1965 N   0  0  0  0  0  2  0  0  0  0  0  0
    2.7736   -0.0142   -1.1326 N   0  0  0  0  0  0  0  0  0  0  0  0
   -0.1972    3.4054    0.9292 C   0  0  0  0  0  0  0  0  0  0  0  0
   -1.1449    2.4174    0.4917 C   0  0  0  0  0  0  0  0  0  0  0  0
   -2.5451    2.7698    0.6048 C   0  0  0  0  0  0  0  0  0  0  0  0
   -2.9390    3.9835    1.1658 C   0  0  0  0  0  0  0  0  0  0  0  0
   -4.0070    4.2262    1.2485 H   0  0  0  0  0  0  0  0  0  0  0  0
   -1.9813    4.9236    1.6240 C   0  0  0  0  0  0  0  0  0  0  0  0
   -2.3188    5.8741    2.0610 H   0  0  0  0  0  0  0  0  0  0  0  0
   -0.6338    4.6383    1.4984 C   0  0  0  0  0  0  0  0  0  0  0  0
    0.1272    5.3638    1.8251 H   0  0  0  0  0  0  0  0  0  0  0  0
    1.2084    3.1914    0.7736 C   0  0  0  0  0  3  0  0  0  0  0  0
    1.8765    3.9822    1.1733 H   0  0  0  0  0  0  0  0  0  0  0  0
    3.2076    2.0031    0.1902 C   0  0  0  0  0  0  0  0  0  0  0  0
    3.7362    2.9808    0.2274 H   0  0  0  0  0  0  0  0  0  0  0  0
    3.5035    1.4279    1.0963 H   0  0  0  0  0  0  0  0  0  0  0  0
    3.5728    1.2430   -1.0719 C   0  0  0  0  0  0  0  0  0  0  0  0
    4.6638    1.0449   -1.1164 H   0  0  0  0  0  0  0  0  0  0  0  0
    3.2827    1.8440   -1.9553 H   0  0  0  0  0  0  0  0  0  0  0  0
    3.3200   -1.0804   -0.2426 C   0  0  0  0  0  0  0  0  0  0  0  0
    2.5641   -1.8871   -0.2066 H   0  0  0  0  0  0  0  0  0  0  0  0
    3.4206   -0.6853    0.7845 H   0  0  0  0  0  0  0  0  0  0  0  0
    4.6403   -1.6587   -0.7559 C   0  0  0  0  0  0  0  0  0  0  0  0
    5.4623   -0.9011   -0.6934 H   0  0  0  0  0  0  0  0  0  0  0  0
    4.9326   -2.5110   -0.1104 H   0  0  0  0  0  0  0  0  0  0  0  0
    4.0834   -1.1333   -2.9563 C   0  0  0  0  0  0  0  0  0  0  0  0
    3.9769   -1.5915   -3.9600 H   0  0  0  0  0  0  0  0  0  0  0  0
    4.8533   -0.3256   -3.0407 H   0  0  0  0  0  0  0  0  0  0  0  0
    2.7356   -0.5664   -2.5166 C   0  0  0  0  0  0  0  0  0  0  0  0
    2.3634    0.2284   -3.1902 H   0  0  0  0  0  0  0  0  0  0  0  0
    1.9932   -1.3861   -2.5094 H   0  0  0  0  0  0  0  0  0  0  0  0
   -4.7859    2.1224    0.1334 C   0  0  0  0  0  0  0  0  0  0  0  0
   -5.1714    2.2674    1.1683 H   0  0  0  0  0  0  0  0  0  0  0  0
   -5.2955    1.2521   -0.3204 H   0  0  0  0  0  0  0  0  0  0  0  0
   -5.0173    3.0337   -0.4628 H   0  0  0  0  0  0  0  0  0  0  0  0
  1  7  1  0  0  0  0
  2 35  1  0  0  0  0
  2  8  1  0  0  0  0
  3 26  1  0  0  0  0
  4 15  1  0  0  0  0
  5 20  1  0  0  0  0
  5 23  1  0  0  0  0
  6 13  1  0  0  0  0
  7  8  1  0  0  0  0
  7  6  2  0  0  0  0
  8  9  2  0  0  0  0
  9 10  1  0  0  0  0
  9 11  1  0  0  0  0
 11 12  1  0  0  0  0
 13 11  2  0  0  0  0
 13 14  1  0  0  0  0
 15  6  1  0  0  0  0
 15 16  1  0  0  0  0
 17  4  1  0  0  0  0
 17 18  1  0  0  0  0
 17 19  1  0  0  0  0
 20 17  1  0  0  0  0
 21 20  1  0  0  0  0
 22 20  1  0  0  0  0
 23 24  1  0  0  0  0
 23 25  1  0  0  0  0
 26 27  1  0  0  0  0
 26 23  1  0  0  0  0
 26 28  1  0  0  0  0
 29 32  1  0  0  0  0
 29  3  1  0  0  0  0
 30 29  1  0  0  0  0
 31 29  1  0  0  0  0
 32 34  1  0  0  0  0
 32  5  1  0  0  0  0
 33 32  1  0  0  0  0
 35 36  1  0  0  0  0
 37 35  1  0  0  0  0
 38 35  1  0  0  0  0
M  CHG  1   1  -1
M  END
