2,3,4
 OpenBabel05122313063D

 36 37  0  0  0  0  0  0  0  0999 V2000
    5.9328   -0.6491   -0.0055 Br  0  0  0  0  0  0  0  0  0  0  0  0
   -0.6233   -0.9450    0.1456 N   0  0  0  0  0  2  0  0  0  0  0  0
   -3.2495   -0.2695    0.1480 N   0  0  0  0  0  0  0  0  0  0  0  0
    0.3184    1.5870   -0.3070 O   0  5  0  0  0  0  0  0  0  0  0  0
    1.7432   -0.3226    0.0105 C   0  0  0  0  0  0  0  0  0  0  0  0
    1.5111    1.0795   -0.2282 C   0  0  0  0  0  0  0  0  0  0  0  0
    2.6530    1.9189   -0.4011 C   0  0  0  0  0  0  0  0  0  0  0  0
    2.4736    2.9875   -0.5859 H   0  0  0  0  0  0  0  0  0  0  0  0
    3.9431    1.4070   -0.3337 C   0  0  0  0  0  0  0  0  0  0  0  0
    4.8093    2.0717   -0.4651 H   0  0  0  0  0  0  0  0  0  0  0  0
    4.1543    0.0259   -0.0943 C   0  0  0  0  0  0  0  0  0  0  0  0
    3.0719   -0.8272    0.0737 C   0  0  0  0  0  0  0  0  0  0  0  0
    3.2332   -1.9003    0.2569 H   0  0  0  0  0  0  0  0  0  0  0  0
    0.6512   -1.2366    0.1738 C   0  0  0  0  0  3  0  0  0  0  0  0
    0.9397   -2.2977    0.3431 H   0  0  0  0  0  0  0  0  0  0  0  0
   -1.5716   -2.0380    0.3460 C   0  0  0  0  0  0  0  0  0  0  0  0
   -1.1621   -2.8215    1.0202 H   0  0  0  0  0  0  0  0  0  0  0  0
   -1.7799   -2.5351   -0.6281 H   0  0  0  0  0  0  0  0  0  0  0  0
   -2.8518   -1.4604    0.9290 C   0  0  0  0  0  0  0  0  0  0  0  0
   -3.6464   -2.2368    0.9640 H   0  0  0  0  0  0  0  0  0  0  0  0
   -2.6653   -1.1088    1.9635 H   0  0  0  0  0  0  0  0  0  0  0  0
   -3.6283   -0.5699   -1.2653 C   0  0  0  0  0  0  0  0  0  0  0  0
   -3.7062    0.4194   -1.7592 H   0  0  0  0  0  0  0  0  0  0  0  0
   -2.7883   -1.0968   -1.7594 H   0  0  0  0  0  0  0  0  0  0  0  0
   -4.9389   -1.3511   -1.3913 C   0  0  0  0  0  0  0  0  0  0  0  0
   -4.8298   -2.3707   -0.9592 H   0  0  0  0  0  0  0  0  0  0  0  0
   -5.1574   -1.4987   -2.4692 H   0  0  0  0  0  0  0  0  0  0  0  0
   -6.0841   -0.6034   -0.6967 C   0  0  0  0  0  0  0  0  0  0  0  0
   -7.0198   -1.1988   -0.7274 H   0  0  0  0  0  0  0  0  0  0  0  0
   -6.2879    0.3377   -1.2539 H   0  0  0  0  0  0  0  0  0  0  0  0
   -5.7029   -0.2550    0.7477 C   0  0  0  0  0  0  0  0  0  0  0  0
   -5.6634   -1.1796    1.3650 H   0  0  0  0  0  0  0  0  0  0  0  0
   -6.4752    0.3897    1.2157 H   0  0  0  0  0  0  0  0  0  0  0  0
   -4.3631    0.4834    0.8031 C   0  0  0  0  0  0  0  0  0  0  0  0
   -4.4226    1.4512    0.2657 H   0  0  0  0  0  0  0  0  0  0  0  0
   -4.0395    0.7140    1.8356 H   0  0  0  0  0  0  0  0  0  0  0  0
  2 14  1  0  0  0  0
  2 16  1  0  0  0  0
  3 34  1  0  0  0  0
  3 19  1  0  0  0  0
  4  6  1  0  0  0  0
  5 12  1  0  0  0  0
  5 14  1  0  0  0  0
  6  5  2  0  0  0  0
  7  9  2  0  0  0  0
  7  6  1  0  0  0  0
  8  7  1  0  0  0  0
  9 11  1  0  0  0  0
 10  9  1  0  0  0  0
 11  1  1  0  0  0  0
 11 12  2  0  0  0  0
 12 13  1  0  0  0  0
 14 15  1  0  0  0  0
 16 19  1  0  0  0  0
 16 17  1  0  0  0  0
 18 16  1  0  0  0  0
 19 20  1  0  0  0  0
 19 21  1  0  0  0  0
 22  3  1  0  0  0  0
 23 22  1  0  0  0  0
 24 22  1  0  0  0  0
 25 22  1  0  0  0  0
 25 26  1  0  0  0  0
 25 28  1  0  0  0  0
 27 25  1  0  0  0  0
 28 31  1  0  0  0  0
 29 28  1  0  0  0  0
 30 28  1  0  0  0  0
 31 34  1  0  0  0  0
 31 33  1  0  0  0  0
 31 32  1  0  0  0  0
 34 36  1  0  0  0  0
 35 34  1  0  0  0  0
M  CHG  1   4  -1
M  END
