2,3,5
 OpenBabel05122313063D

 33 34  0  0  1  0  0  0  0  0999 V2000
    2.6296   -1.2563    0.3419 N   0  0  0  0  0  0  0  0  0  0  0  0
    1.4659   -1.4740   -0.2623 N   0  0  0  0  0  2  0  0  0  0  0  0
   -0.8386   -1.4188   -1.5024 N   0  0  0  0  0  2  0  0  0  0  0  0
   -1.8261   -3.5402   -2.9795 N   0  0  0  0  0  0  0  0  0  0  0  0
    1.5631    0.5786    1.3159 O   0  5  0  0  0  0  0  0  0  0  0  0
    5.0148   -1.8212    1.0140 O   0  0  0  0  0  0  0  0  0  0  0  0
    4.0809   -1.8672    0.5860 H   0  0  0  0  0  0  0  0  0  0  0  0
    2.5834   -0.1610    1.1877 C   0  0  0  0  0  0  0  0  0  0  0  0
    3.8314    0.1066    1.9206 C   0  0  0  0  0  0  0  0  0  0  0  0
    4.9887   -0.7350    1.7904 C   0  0  0  0  0  0  0  0  0  0  0  0
    6.1549   -0.3992    2.5220 C   0  0  0  0  0  0  0  0  0  0  0  0
    7.0313   -1.0540    2.4115 H   0  0  0  0  0  0  0  0  0  0  0  0
    6.1788    0.7209    3.3520 C   0  0  0  0  0  0  0  0  0  0  0  0
    7.0981    0.9575    3.9104 H   0  0  0  0  0  0  0  0  0  0  0  0
    5.0428    1.5498    3.4851 C   0  0  0  0  0  0  0  0  0  0  0  0
    5.0703    2.4303    4.1433 H   0  0  0  0  0  0  0  0  0  0  0  0
    3.8880    1.2364    2.7721 C   0  0  0  0  0  0  0  0  0  0  0  0
    2.9808    1.8538    2.8462 H   0  0  0  0  0  0  0  0  0  0  0  0
    2.4916   -3.2436   -1.6128 C   0  0  0  0  0  0  0  0  0  0  0  0
    3.4066   -2.6190   -1.5693 H   0  0  0  0  0  0  0  0  0  0  0  0
    2.3757   -3.6339   -2.6377 H   0  0  0  0  0  0  0  0  0  0  0  0
    2.6712   -4.1030   -0.9319 H   0  0  0  0  0  0  0  0  0  0  0  0
    1.3220   -2.4114   -1.1756 C   0  0  2  0  0  3  0  0  0  0  0  0
   -0.0435   -2.4961   -1.7374 C   0  0  1  0  0  3  0  0  0  0  0  0
   -0.5895   -3.6113   -2.4560 C   0  0  0  0  0  0  0  0  0  0  0  0
    0.1049   -4.9372   -2.6273 C   0  0  0  0  0  0  0  0  0  0  0  0
   -0.6605   -5.6880   -2.8956 H   0  0  0  0  0  0  0  0  0  0  0  0
    0.6312   -5.2587   -1.7091 H   0  0  0  0  0  0  0  0  0  0  0  0
    0.8496   -4.9137   -3.4498 H   0  0  0  0  0  0  0  0  0  0  0  0
   -2.5607   -2.4399   -2.7774 C   0  0  0  0  0  0  0  0  0  0  0  0
   -3.5659   -2.4039   -3.2307 H   0  0  0  0  0  0  0  0  0  0  0  0
   -2.0793   -1.3836   -1.9910 C   0  0  0  0  0  0  0  0  0  0  0  0
   -2.6957   -0.5028   -1.7431 H   0  0  0  0  0  0  0  0  0  0  0  0
  1  8  2  0  0  0  0
  2  1  1  0  0  0  0
  4 30  1  0  0  0  0
  4 25  2  0  0  0  0
  6 10  1  0  0  0  0
  7  6  1  0  0  0  0
  8  5  1  0  0  0  0
  8  9  1  0  0  0  0
  9 17  1  0  0  0  0
 10  9  2  0  0  0  0
 10 11  1  0  0  0  0
 11 13  2  0  0  0  0
 12 11  1  0  0  0  0
 13 15  1  0  0  0  0
 13 14  1  0  0  0  0
 15 16  1  0  0  0  0
 17 18  1  0  0  0  0
 17 15  2  0  0  0  0
 19 20  1  0  0  0  0
 19 23  1  0  0  0  0
 19 22  1  0  0  0  0
 21 19  1  0  0  0  0
 23  2  1  6  0  0  0
 24  3  1  0  0  0  0
 24 23  1  1  0  0  0
 25 24  1  0  0  0  0
 26 25  1  0  0  0  0
 26 28  1  0  0  0  0
 27 26  1  0  0  0  0
 29 26  1  0  0  0  0
 30 32  2  0  0  0  0
 31 30  1  0  0  0  0
 32 33  1  0  0  0  0
 32  3  1  0  0  0  0
M  CHG  1   5  -1
M  END
