1,3,4
 OpenBabel05122313063D

 42 45  0  0  1  0  0  0  0  0999 V2000
   -2.0816   -0.7119   -0.6092 O   0  0  0  0  0  1  0  0  0  0  0  0
   -4.4640   -1.7182   -0.6139 O   0  0  0  0  0  0  0  0  0  0  0  0
   -0.3253    1.4288    0.2071 N   0  0  0  0  0  2  0  0  0  0  0  0
    1.8889   -0.3678   -0.0794 N   0  0  0  0  0  2  0  0  0  0  0  0
    3.8280    0.5944    0.4535 N   0  0  0  0  0  0  0  0  0  0  0  0
    4.4827    1.3364    0.6948 H   0  0  0  0  0  0  0  0  0  0  0  0
   -1.4437    1.7970    0.8266 C   0  0  0  0  0  0  0  0  0  0  0  0
   -1.4353    2.7986    1.2985 H   0  0  0  0  0  0  0  0  0  0  0  0
   -2.6649    1.0847    0.9328 C   0  0  0  0  0  0  0  0  0  0  0  0
   -3.7024    1.6502    1.7504 C   0  0  0  0  0  0  0  0  0  0  0  0
   -3.4717    2.5495    2.3420 H   0  0  0  0  0  0  0  0  0  0  0  0
   -4.9598    1.0869    1.7867 C   0  0  0  0  0  0  0  0  0  0  0  0
   -5.7494    1.5202    2.4175 H   0  0  0  0  0  0  0  0  0  0  0  0
   -5.2533   -0.0599    0.9933 C   0  0  0  0  0  0  0  0  0  0  0  0
   -6.2628   -0.4915    1.0331 H   0  0  0  0  0  0  0  0  0  0  0  0
   -4.2846   -0.6350    0.1772 C   0  0  0  0  0  0  0  0  0  0  0  0
   -2.9301   -0.0981    0.1405 C   0  0  1  0  0  3  0  0  0  0  0  0
    0.6106    2.4171   -0.1400 C   0  0  0  0  0  0  0  0  0  0  0  0
    0.1813    3.7380   -0.4279 C   0  0  0  0  0  0  0  0  0  0  0  0
   -0.8962    3.9531   -0.4316 H   0  0  0  0  0  0  0  0  0  0  0  0
    1.0859    4.7498   -0.7572 C   0  0  0  0  0  0  0  0  0  0  0  0
    0.7103    5.7587   -0.9847 H   0  0  0  0  0  0  0  0  0  0  0  0
    2.4604    4.4697   -0.8389 C   0  0  0  0  0  0  0  0  0  0  0  0
    3.1774    5.2525   -1.1248 H   0  0  0  0  0  0  0  0  0  0  0  0
    2.9021    3.1675   -0.5966 C   0  0  0  0  0  3  0  0  0  0  0  0
    3.9708    2.9339   -0.7190 H   0  0  0  0  0  0  0  0  0  0  0  0
    2.0071    2.1285   -0.2488 C   0  0  0  0  0  0  0  0  0  0  0  0
    2.5371    0.8034    0.0270 C   0  0  0  0  0  0  0  0  0  0  0  0
    4.0164   -0.7601    0.6603 C   0  0  0  0  0  0  0  0  0  0  0  0
    5.1218   -1.4924    1.1198 C   0  0  0  0  0  0  0  0  0  0  0  0
    6.0721   -1.0024    1.3768 H   0  0  0  0  0  0  0  0  0  0  0  0
    4.9508   -2.8757    1.2405 C   0  0  0  0  0  0  0  0  0  0  0  0
    5.7899   -3.4921    1.5962 H   0  0  0  0  0  0  0  0  0  0  0  0
    3.7188   -3.4958    0.9181 C   0  0  0  0  0  0  0  0  0  0  0  0
    3.6239   -4.5859    1.0318 H   0  0  0  0  0  0  0  0  0  0  0  0
    2.6183   -2.7654    0.4594 C   0  0  0  0  0  0  0  0  0  0  0  0
    1.6628   -3.2309    0.1800 H   0  0  0  0  0  0  0  0  0  0  0  0
    2.7759   -1.3733    0.3213 C   0  0  0  0  0  0  0  0  0  0  0  0
   -5.7363   -2.3295   -0.6247 C   0  0  0  0  0  0  0  0  0  0  0  0
   -5.6679   -3.1821   -1.3252 H   0  0  0  0  0  0  0  0  0  0  0  0
   -6.5296   -1.6310   -0.9772 H   0  0  0  0  0  0  0  0  0  0  0  0
   -6.0223   -2.7089    0.3830 H   0  0  0  0  0  0  0  0  0  0  0  0
  2 16  1  0  0  0  0
  3  7  1  0  0  0  0
  4 28  1  0  0  0  0
  4 38  1  0  0  0  0
  5 29  1  0  0  0  0
  5  6  1  0  0  0  0
  7  9  2  0  0  0  0
  7  8  1  0  0  0  0
  9 10  1  0  0  0  0
 10 12  2  0  0  0  0
 10 11  1  0  0  0  0
 12 13  1  0  0  0  0
 14 15  1  0  0  0  0
 14 12  1  0  0  0  0
 16 14  2  0  0  0  0
 17  1  1  6  0  0  0
 17 16  1  0  0  0  0
 17  9  1  0  0  0  0
 18  3  1  0  0  0  0
 19 18  2  0  0  0  0
 20 19  1  0  0  0  0
 21 19  1  0  0  0  0
 22 21  1  0  0  0  0
 23 21  2  0  0  0  0
 23 25  1  0  0  0  0
 24 23  1  0  0  0  0
 25 27  1  0  0  0  0
 26 25  1  0  0  0  0
 27 18  1  0  0  0  0
 27 28  2  0  0  0  0
 28  5  1  0  0  0  0
 29 30  1  0  0  0  0
 30 32  2  0  0  0  0
 30 31  1  0  0  0  0
 32 33  1  0  0  0  0
 34 35  1  0  0  0  0
 34 32  1  0  0  0  0
 36 34  2  0  0  0  0
 37 36  1  0  0  0  0
 38 36  1  0  0  0  0
 38 29  2  0  0  0  0
 39  2  1  0  0  0  0
 39 42  1  0  0  0  0
 40 39  1  0  0  0  0
 41 39  1  0  0  0  0
M  END
