1,3,4
 OpenBabel05122313063D

 48 51  0  0  1  0  0  0  0  0999 V2000
    3.6281    0.4348    0.0065 N   0  0  0  0  0  2  0  0  0  0  0  0
    4.1794    2.6023    0.0952 N   0  0  0  0  0  0  0  0  0  0  0  0
    0.9856    0.6930   -0.1576 N   0  0  0  0  0  2  0  0  0  0  0  0
    0.4748   -2.1011    0.1908 O   0  5  0  0  0  0  0  0  0  0  0  0
   -4.5112    2.8362   -0.0775 O   0  0  0  0  0  0  0  0  0  0  0  0
   -7.2595    2.0562    0.0643 O   0  0  0  0  0  0  0  0  0  0  0  0
   -7.5755   -0.1819    0.3363 O   0  0  0  0  0  0  0  0  0  0  0  0
    5.0089    0.5145    0.0743 C   0  0  0  0  0  0  0  0  0  0  0  0
    5.9840   -0.4962    0.0463 C   0  0  0  0  0  0  0  0  0  0  0  0
    5.6775   -1.5438   -0.0802 H   0  0  0  0  0  0  0  0  0  0  0  0
    7.3220   -0.0924    0.1252 C   0  0  0  0  0  0  0  0  0  0  0  0
    8.1176   -0.8517    0.0991 H   0  0  0  0  0  0  0  0  0  0  0  0
    7.6814    1.2745    0.2229 C   0  0  0  0  0  0  0  0  0  0  0  0
    8.7460    1.5456    0.2821 H   0  0  0  0  0  0  0  0  0  0  0  0
    6.7183    2.2942    0.2283 C   0  0  0  0  0  0  0  0  0  0  0  0
    7.0068    3.3536    0.2849 H   0  0  0  0  0  0  0  0  0  0  0  0
    5.3785    1.8865    0.1461 C   0  0  0  0  0  0  0  0  0  0  0  0
    3.1683    1.6762    0.0033 C   0  0  1  0  0  3  0  0  0  0  0  0
    1.7041    1.9600   -0.1696 C   0  0  0  0  0  0  0  0  0  0  0  0
    1.5531    2.4934   -1.1394 H   0  0  0  0  0  0  0  0  0  0  0  0
   -0.3150    0.7439   -0.0336 C   0  0  0  0  0  3  0  0  0  0  0  0
   -0.8128    1.7353    0.0158 H   0  0  0  0  0  0  0  0  0  0  0  0
   -1.2066   -0.3744    0.0622 C   0  0  0  0  0  0  0  0  0  0  0  0
   -2.6067   -0.1021    0.1013 C   0  0  0  0  0  0  0  0  0  0  0  0
   -2.9983    1.1817   -0.0126 O   0  0  0  0  0  0  0  0  0  0  0  0
   -4.3689    1.6439    0.0166 C   0  0  0  0  0  0  0  0  0  0  0  0
   -5.3542    0.5729    0.1559 C   0  0  0  0  0  0  0  0  0  0  0  0
   -4.9392   -0.7460    0.2680 C   0  0  0  0  0  0  0  0  0  0  0  0
   -5.7101   -1.5234    0.3750 H   0  0  0  0  0  0  0  0  0  0  0  0
   -3.5730   -1.1269    0.2505 C   0  0  0  0  0  0  0  0  0  0  0  0
   -3.1088   -2.4751    0.3746 C   0  0  0  0  0  0  0  0  0  0  0  0
   -3.8591   -3.2737    0.4878 H   0  0  0  0  0  0  0  0  0  0  0  0
   -1.7678   -2.7786    0.3539 C   0  0  0  0  0  0  0  0  0  0  0  0
   -1.4050   -3.8118    0.4477 H   0  0  0  0  0  0  0  0  0  0  0  0
   -0.7541   -1.7568    0.1929 C   0  0  0  0  0  0  0  0  0  0  0  0
    4.0638    4.0469    0.1020 C   0  0  0  0  0  0  0  0  0  0  0  0
    4.5535    4.4693    1.0026 H   0  0  0  0  0  0  0  0  0  0  0  0
    2.9986    4.3396    0.1146 H   0  0  0  0  0  0  0  0  0  0  0  0
    4.5409    4.4847   -0.7989 H   0  0  0  0  0  0  0  0  0  0  0  0
   -6.7976    0.9356    0.1737 C   0  0  0  0  0  0  0  0  0  0  0  0
   -8.9991    0.0387    0.3407 C   0  0  0  0  0  0  0  0  0  0  0  0
   -9.4137   -0.8094    0.9209 H   0  0  0  0  0  0  0  0  0  0  0  0
   -9.2125    0.9864    0.8763 H   0  0  0  0  0  0  0  0  0  0  0  0
   -9.5660    0.0806   -1.0699 C   0  0  0  0  0  0  0  0  0  0  0  0
  -10.6707    0.1711   -1.0341 H   0  0  0  0  0  0  0  0  0  0  0  0
   -9.3118   -0.8421   -1.6290 H   0  0  0  0  0  0  0  0  0  0  0  0
   -9.1674    0.9541   -1.6214 H   0  0  0  0  0  0  0  0  0  0  0  0
    1.3396    2.6511    0.6257 H   0  0  0  0  0  0  0  0  0  0  0  0
  1  8  1  0  0  0  0
  2 36  1  0  0  0  0
  2 17  1  0  0  0  0
  3 21  1  0  0  0  0
  4 35  1  0  0  0  0
  5 26  2  0  0  0  0
  6 40  2  0  0  0  0
  7 41  1  0  0  0  0
  8 17  1  0  0  0  0
  9  8  2  0  0  0  0
  9 11  1  0  0  0  0
 10  9  1  0  0  0  0
 11 13  2  0  0  0  0
 12 11  1  0  0  0  0
 13 15  1  0  0  0  0
 13 14  1  0  0  0  0
 15 16  1  0  0  0  0
 17 15  2  0  0  0  0
 18 19  1  6  0  0  0
 18  1  1  0  0  0  0
 18  2  1  0  0  0  0
 19  3  1  0  0  0  0
 19 48  1  0  0  0  0
 20 19  1  0  0  0  0
 21 22  1  0  0  0  0
 21 23  1  0  0  0  0
 23 24  2  0  0  0  0
 23 35  1  0  0  0  0
 24 30  1  0  0  0  0
 25 26  1  0  0  0  0
 25 24  1  0  0  0  0
 26 27  1  0  0  0  0
 27 40  1  0  0  0  0
 27 28  2  0  0  0  0
 28 29  1  0  0  0  0
 30 28  1  0  0  0  0
 30 31  2  0  0  0  0
 31 32  1  0  0  0  0
 33 31  1  0  0  0  0
 33 34  1  0  0  0  0
 35 33  2  0  0  0  0
 36 38  1  0  0  0  0
 36 37  1  0  0  0  0
 39 36  1  0  0  0  0
 40  7  1  0  0  0  0
 41 43  1  0  0  0  0
 41 42  1  0  0  0  0
 44 45  1  0  0  0  0
 44 41  1  0  0  0  0
 46 44  1  0  0  0  0
 47 44  1  0  0  0  0
M  CHG  1   4  -1
M  END
