2,3,5
 OpenBabel05122313063D

 29 29  0  0  0  0  0  0  0  0999 V2000
   -3.6668   -0.6149   -0.1752 S   0  0  0  0  0  0  0  0  0  0  0  0
    2.5140   -0.5341    0.0272 O   0  5  0  0  0  0  0  0  0  0  0  0
    0.0103    0.6143   -0.1479 N   0  0  0  0  0  2  0  0  0  0  0  0
   -1.3538    0.7355   -0.1086 N   0  0  0  0  0  0  0  0  0  0  0  0
   -1.1738   -1.5929   -0.2468 N   0  0  0  0  0  2  0  0  0  0  0  0
    2.9937    0.7060    0.0037 C   0  0  0  0  0  0  0  0  0  0  0  0
    4.3922    0.8944    0.0540 C   0  0  0  0  0  0  0  0  0  0  0  0
    4.9337    2.1834    0.0527 C   0  0  0  0  0  0  0  0  0  0  0  0
    4.0958    3.3162    0.0051 C   0  0  0  0  0  0  0  0  0  0  0  0
    2.7134    3.1412   -0.0412 C   0  0  0  0  0  0  0  0  0  0  0  0
    2.1303    1.8466   -0.0471 C   0  0  0  0  0  0  0  0  0  0  0  0
    0.6956    1.7327   -0.0769 C   0  0  0  0  0  3  0  0  0  0  0  0
   -1.9114   -0.4607   -0.1914 C   0  0  0  0  0  0  0  0  0  0  0  0
   -4.1836    1.1428   -0.1160 C   0  0  0  0  0  0  0  0  0  0  0  0
   -5.7093    1.2288   -0.1283 C   0  0  0  0  0  0  0  0  0  0  0  0
   -6.1945    2.6791   -0.0786 C   0  0  0  0  0  0  0  0  0  0  0  0
   -1.6812   -2.4781   -0.3306 H   0  0  0  0  0  0  0  0  0  0  0  0
    5.0295   -0.0000    0.0950 H   0  0  0  0  0  0  0  0  0  0  0  0
    6.0265    2.3093    0.0917 H   0  0  0  0  0  0  0  0  0  0  0  0
    4.5271    4.3275    0.0044 H   0  0  0  0  0  0  0  0  0  0  0  0
    2.0445    4.0155   -0.0780 H   0  0  0  0  0  0  0  0  0  0  0  0
    0.0994    2.6641   -0.0345 H   0  0  0  0  0  0  0  0  0  0  0  0
   -3.7484    1.5962    0.7967 H   0  0  0  0  0  0  0  0  0  0  0  0
   -3.7303    1.6580   -0.9862 H   0  0  0  0  0  0  0  0  0  0  0  0
   -6.1003    0.7288   -1.0406 H   0  0  0  0  0  0  0  0  0  0  0  0
   -6.1197    0.6618    0.7353 H   0  0  0  0  0  0  0  0  0  0  0  0
   -7.3013    2.7315   -0.0882 H   0  0  0  0  0  0  0  0  0  0  0  0
   -5.8228    3.2591   -0.9483 H   0  0  0  0  0  0  0  0  0  0  0  0
   -5.8414    3.1922    0.8398 H   0  0  0  0  0  0  0  0  0  0  0  0
  1 14  1  0  0  0  0
  3  4  1  0  0  0  0
  3 12  1  0  0  0  0
  5 13  1  0  0  0  0
  6  2  1  0  0  0  0
  6  7  1  0  0  0  0
  7 18  1  0  0  0  0
  8  7  2  0  0  0  0
  8 19  1  0  0  0  0
  9  8  1  0  0  0  0
 10  9  2  0  0  0  0
 11 10  1  0  0  0  0
 11  6  2  0  0  0  0
 12 11  1  0  0  0  0
 12 22  1  0  0  0  0
 13  1  1  0  0  0  0
 13  4  2  0  0  0  0
 14 23  1  0  0  0  0
 15 14  1  0  0  0  0
 15 16  1  0  0  0  0
 15 26  1  0  0  0  0
 16 29  1  0  0  0  0
 17  5  1  0  0  0  0
 20  9  1  0  0  0  0
 21 10  1  0  0  0  0
 24 14  1  0  0  0  0
 25 15  1  0  0  0  0
 27 16  1  0  0  0  0
 28 16  1  0  0  0  0
M  CHG  1   2  -1
M  END
