2,3,4
 OpenBabel05122313063D

 31 31  0  0  1  0  0  0  0  0999 V2000
   -2.6053   -2.2969   -2.6710 S   0  0  0  0  0  0  0  0  0  0  0  0
   -1.0568   -1.3815   -0.6245 N   0  0  0  0  0  2  0  0  0  0  0  0
    1.1548    1.5407    0.5104 O   0  5  0  0  0  0  0  0  0  0  0  0
   -0.4519    0.8706   -1.6641 N   0  0  0  0  0  2  0  0  0  0  0  0
    1.4432    2.5881   -0.2146 C   0  0  0  0  0  0  0  0  0  0  0  0
   -1.2621   -2.6503    0.0641 C   0  0  0  0  0  0  0  0  0  0  0  0
   -2.2311   -3.0840   -0.2804 H   0  0  0  0  0  0  0  0  0  0  0  0
   -1.3643   -2.4551    1.1503 H   0  0  0  0  0  0  0  0  0  0  0  0
   -1.5737   -1.1507   -1.8069 C   0  0  2  0  0  3  0  0  0  0  0  0
    2.3487    3.5436    0.3409 C   0  0  0  0  0  0  0  0  0  0  0  0
    2.7545    3.3271    1.3392 H   0  0  0  0  0  0  0  0  0  0  0  0
    0.9134    2.8661   -1.5330 C   0  0  0  0  0  0  0  0  0  0  0  0
   -1.2981    0.0590   -2.3764 N   0  0  0  0  0  0  0  0  0  0  0  0
   -1.4338    0.2313   -3.3761 H   0  0  0  0  0  0  0  0  0  0  0  0
    1.3074    4.0569   -2.2169 C   0  0  0  0  0  0  0  0  0  0  0  0
    0.8952    4.2439   -3.2212 H   0  0  0  0  0  0  0  0  0  0  0  0
    0.0083    1.9819   -2.1889 C   0  0  0  0  0  3  0  0  0  0  0  0
   -0.3371    2.2575   -3.2046 H   0  0  0  0  0  0  0  0  0  0  0  0
    2.1869    4.9617   -1.6460 C   0  0  0  0  0  0  0  0  0  0  0  0
    2.4815    5.8724   -2.1856 H   0  0  0  0  0  0  0  0  0  0  0  0
    2.7066    4.6913   -0.3542 C   0  0  0  0  0  0  0  0  0  0  0  0
    3.4109    5.4002    0.1079 H   0  0  0  0  0  0  0  0  0  0  0  0
   -0.1432   -3.6263   -0.1950 C   0  0  0  0  0  0  0  0  0  0  0  0
    0.0886   -3.8108   -1.2589 H   0  0  0  0  0  0  0  0  0  0  0  0
   -3.6412   -1.1763   -3.6723 C   0  0  0  0  0  0  0  0  0  0  0  0
   -4.4626   -1.8136   -4.0514 H   0  0  0  0  0  0  0  0  0  0  0  0
   -3.0979   -0.7655   -4.5464 H   0  0  0  0  0  0  0  0  0  0  0  0
   -4.0626   -0.3720   -3.0400 H   0  0  0  0  0  0  0  0  0  0  0  0
    0.5529   -4.2579    0.7621 C   0  0  0  0  0  0  0  0  0  0  0  0
    0.3454   -4.0882    1.8321 H   0  0  0  0  0  0  0  0  0  0  0  0
    1.3514   -4.9737    0.5166 H   0  0  0  0  0  0  0  0  0  0  0  0
  2  6  1  0  0  0  0
  5 10  1  0  0  0  0
  5  3  1  0  0  0  0
  6  8  1  0  0  0  0
  7  6  1  0  0  0  0
  9  1  1  1  0  0  0
  9  2  1  0  0  0  0
 10 11  1  0  0  0  0
 12  5  2  0  0  0  0
 13  9  1  0  0  0  0
 13  4  1  0  0  0  0
 14 13  1  0  0  0  0
 15 19  2  0  0  0  0
 15 12  1  0  0  0  0
 16 15  1  0  0  0  0
 17  4  1  0  0  0  0
 17 12  1  0  0  0  0
 18 17  1  0  0  0  0
 19 21  1  0  0  0  0
 20 19  1  0  0  0  0
 21 22  1  0  0  0  0
 21 10  2  0  0  0  0
 23  6  1  0  0  0  0
 23 29  2  0  0  0  0
 24 23  1  0  0  0  0
 25 28  1  0  0  0  0
 25  1  1  0  0  0  0
 26 25  1  0  0  0  0
 27 25  1  0  0  0  0
 29 30  1  0  0  0  0
 31 29  1  0  0  0  0
M  CHG  1   3  -1
M  END
