2,3,32
 OpenBabel05122313063D

 36 38  0  0  1  0  0  0  0  0999 V2000
    0.8920    1.9834   -0.0862 C   0  0  0  0  0  0  0  0  0  0  0  0
    3.2049   -2.1206    0.0820 O   0  0  0  0  0  1  0  0  0  0  0  0
    0.8387   -0.4113   -0.0252 N   0  0  0  0  0  2  0  0  0  0  0  0
   -1.2100    0.8034   -0.0882 N   0  0  0  0  0  2  0  0  0  0  0  0
    2.2997   -3.0300    0.0856 C   0  0  1  0  0  3  0  0  0  0  0  0
   -1.8929   -0.3648   -0.0818 N   0  0  0  0  0  0  0  0  0  0  0  0
    0.3356    3.2691   -0.1451 C   0  0  0  0  0  0  0  0  0  0  0  0
   -0.7584    3.3620   -0.1817 H   0  0  0  0  0  0  0  0  0  0  0  0
   -1.2755   -1.6452   -0.0340 C   0  0  0  0  0  0  0  0  0  0  0  0
    0.8932   -2.8389    0.0456 C   0  0  0  0  0  0  0  0  0  0  0  0
    0.2465   -3.7249    0.0544 H   0  0  0  0  0  0  0  0  0  0  0  0
    0.0992    0.7434   -0.0633 C   0  0  0  0  0  0  0  0  0  0  0  0
    1.1905    4.3764   -0.1608 C   0  0  0  0  0  0  0  0  0  0  0  0
    0.7777    5.3950   -0.2072 H   0  0  0  0  0  0  0  0  0  0  0  0
    2.5789    4.1680   -0.1186 C   0  0  0  0  0  0  0  0  0  0  0  0
    3.2853    5.0100   -0.1296 H   0  0  0  0  0  0  0  0  0  0  0  0
   -3.3208   -0.2203   -0.0417 C   0  0  0  0  0  0  0  0  0  0  0  0
   -4.1805   -1.1582   -0.6474 C   0  0  0  0  0  0  0  0  0  0  0  0
   -3.7720   -2.0437   -1.1451 H   0  0  0  0  0  0  0  0  0  0  0  0
    3.0750    2.8612   -0.0640 C   0  0  0  0  0  0  0  0  0  0  0  0
    4.1478    2.6055   -0.0308 H   0  0  0  0  0  0  0  0  0  0  0  0
    0.2189   -1.6114   -0.0062 C   0  0  0  0  0  0  0  0  0  0  0  0
   -5.5658   -0.9615   -0.6026 C   0  0  0  0  0  0  0  0  0  0  0  0
   -6.2425   -1.6864   -1.0756 H   0  0  0  0  0  0  0  0  0  0  0  0
   -3.8600    0.9110    0.6020 C   0  0  0  0  0  0  0  0  0  0  0  0
   -3.1799    1.6370    1.0660 H   0  0  0  0  0  0  0  0  0  0  0  0
   -6.0952    0.1667    0.0439 C   0  0  0  0  0  0  0  0  0  0  0  0
   -5.2431    1.1071    0.6471 C   0  0  0  0  0  0  0  0  0  0  0  0
   -5.6681    1.9843    1.1542 H   0  0  0  0  0  0  0  0  0  0  0  0
   -7.8199    0.4033    0.1007 Cl  0  0  0  0  0  0  0  0  0  0  0  0
   -1.9196   -2.6869   -0.0121 O   0  0  0  0  0  0  0  0  0  0  0  0
    2.2458    1.7961   -0.0488 N   0  0  0  0  0  2  0  0  0  0  0  0
    2.8452   -4.4378    0.1376 C   0  0  0  0  0  0  0  0  0  0  0  0
    3.4758   -4.5523    1.0424 H   0  0  0  0  0  0  0  0  0  0  0  0
    3.5098   -4.6048   -0.7344 H   0  0  0  0  0  0  0  0  0  0  0  0
    2.0470   -5.2012    0.1447 H   0  0  0  0  0  0  0  0  0  0  0  0
  1 12  2  0  0  0  0
  1 32  1  0  0  0  0
  3 22  1  0  0  0  0
  4  6  1  0  0  0  0
  4 12  1  0  0  0  0
  5  2  1  6  0  0  0
  5 33  1  0  0  0  0
  6 17  1  0  0  0  0
  6  9  1  0  0  0  0
  7  1  1  0  0  0  0
  8  7  1  0  0  0  0
  9 31  2  0  0  0  0
  9 22  1  0  0  0  0
 10 11  1  0  0  0  0
 10  5  1  0  0  0  0
 12  3  1  0  0  0  0
 13  7  2  0  0  0  0
 13 15  1  0  0  0  0
 14 13  1  0  0  0  0
 15 20  2  0  0  0  0
 16 15  1  0  0  0  0
 17 25  1  0  0  0  0
 18 23  1  0  0  0  0
 18 17  2  0  0  0  0
 19 18  1  0  0  0  0
 20 32  1  0  0  0  0
 20 21  1  0  0  0  0
 22 10  2  0  0  0  0
 23 27  2  0  0  0  0
 24 23  1  0  0  0  0
 25 28  2  0  0  0  0
 25 26  1  0  0  0  0
 27 30  1  0  0  0  0
 27 28  1  0  0  0  0
 28 29  1  0  0  0  0
 33 36  1  0  0  0  0
 33 34  1  0  0  0  0
 35 33  1  0  0  0  0
M  END
