2,3,4
 OpenBabel05122313063D

 29 29  0  0  1  0  0  0  0  0999 V2000
    0.6060    3.0593   -0.8419 O   0  0  0  0  0  0  0  0  0  0  0  0
    1.6164   -1.7600   -0.3013 O   0  0  0  0  0  1  0  0  0  0  0  0
   -1.7319    0.4761    0.0784 N   0  0  0  0  0  2  0  0  0  0  0  0
    0.8576    0.7883   -0.4379 N   0  0  0  0  0  2  0  0  0  0  0  0
   -1.3155    1.7342   -0.2327 C   0  0  1  0  0  3  0  0  0  0  0  0
   -2.2216    2.7985   -0.2353 C   0  0  0  0  0  0  0  0  0  0  0  0
   -3.5630    2.5499    0.0853 C   0  0  0  0  0  0  0  0  0  0  0  0
   -3.9652    1.2415    0.4025 C   0  0  0  0  0  0  0  0  0  0  0  0
   -3.0155    0.2134    0.3899 C   0  0  0  0  0  0  0  0  0  0  0  0
    0.1595    1.9471   -0.5481 C   0  0  0  0  0  0  0  0  0  0  0  0
    2.3006    0.5730   -0.5837 C   0  0  2  0  0  0  0  0  0  0  0  0
    2.3893   -0.8780   -1.1104 C   0  0  0  0  0  0  0  0  0  0  0  0
    3.0778    0.7576    0.7499 C   0  0  0  0  0  0  0  0  0  0  0  0
    4.5834    0.8277    0.4664 C   0  0  0  0  0  0  0  0  0  0  0  0
    2.6162    1.9827    1.5456 C   0  0  0  0  0  0  0  0  0  0  0  0
   -1.8284    3.7935   -0.4911 H   0  0  0  0  0  0  0  0  0  0  0  0
   -4.2953    3.3712    0.0886 H   0  0  0  0  0  0  0  0  0  0  0  0
   -5.0087    1.0085    0.6569 H   0  0  0  0  0  0  0  0  0  0  0  0
   -3.2399   -0.8428    0.6141 H   0  0  0  0  0  0  0  0  0  0  0  0
    2.6850    1.3026   -1.3322 H   0  0  0  0  0  0  0  0  0  0  0  0
    2.0581   -0.8941   -2.1766 H   0  0  0  0  0  0  0  0  0  0  0  0
    3.4328   -1.2631   -1.0825 H   0  0  0  0  0  0  0  0  0  0  0  0
    2.8709   -0.1525    1.3566 H   0  0  0  0  0  0  0  0  0  0  0  0
    4.9501   -0.0524   -0.0994 H   0  0  0  0  0  0  0  0  0  0  0  0
    4.8312    1.7355   -0.1240 H   0  0  0  0  0  0  0  0  0  0  0  0
    5.1601    0.8757    1.4117 H   0  0  0  0  0  0  0  0  0  0  0  0
    3.2316    2.1030    2.4600 H   0  0  0  0  0  0  0  0  0  0  0  0
    2.6994    2.9106    0.9443 H   0  0  0  0  0  0  0  0  0  0  0  0
    1.5606    1.8853    1.8669 H   0  0  0  0  0  0  0  0  0  0  0  0
  1 10  2  0  0  0  0
  3  9  1  0  0  0  0
  5 10  1  1  0  0  0
  5  3  1  0  0  0  0
  6  5  1  0  0  0  0
  6  7  2  0  0  0  0
  7 17  1  0  0  0  0
  7  8  1  0  0  0  0
  8 18  1  0  0  0  0
  9  8  2  0  0  0  0
  9 19  1  0  0  0  0
 10  4  1  0  0  0  0
 11 20  1  6  0  0  0
 11  4  1  0  0  0  0
 11 13  1  0  0  0  0
 12 22  1  0  0  0  0
 12 11  1  0  0  0  0
 12  2  1  0  0  0  0
 13 23  1  0  0  0  0
 13 15  1  0  0  0  0
 14 13  1  0  0  0  0
 14 26  1  0  0  0  0
 15 29  1  0  0  0  0
 15 27  1  0  0  0  0
 16  6  1  0  0  0  0
 21 12  1  0  0  0  0
 24 14  1  0  0  0  0
 25 14  1  0  0  0  0
 28 15  1  0  0  0  0
M  END
