2,36,49
 OpenBabel05122313063D

 49 51  0  0  0  0  0  0  0  0999 V2000
    1.4745   -0.1832    0.0538 C   0  0  0  0  0  0  0  0  0  0  0  0
    0.2670    0.5066    0.0172 N   0  0  0  0  0  2  0  0  0  0  0  0
    0.3905    1.8310   -0.1156 N   0  0  0  0  0  0  0  0  0  0  0  0
   -0.6186    2.5491   -0.5155 C   0  0  0  0  0  0  0  0  0  0  0  0
   -1.5551    2.0428   -0.8154 H   0  0  0  0  0  0  0  0  0  0  0  0
   -0.5499    4.0005   -0.6060 C   0  0  0  0  0  0  0  0  0  0  0  0
   -1.6669    4.7313   -1.1009 C   0  0  0  0  0  0  0  0  0  0  0  0
   -1.6182    6.1314   -1.2057 C   0  0  0  0  0  0  0  0  0  0  0  0
   -2.4968    6.6735   -1.5939 H   0  0  0  0  0  0  0  0  0  0  0  0
   -0.4662    6.8322   -0.8221 C   0  0  0  0  0  0  0  0  0  0  0  0
   -0.4418    7.9285   -0.9101 H   0  0  0  0  0  0  0  0  0  0  0  0
    0.6448    6.1300   -0.3224 C   0  0  0  0  0  0  0  0  0  0  0  0
    1.5494    6.6736   -0.0126 H   0  0  0  0  0  0  0  0  0  0  0  0
    0.5939    4.7376   -0.2154 C   0  0  0  0  0  0  0  0  0  0  0  0
    1.4506    4.1755    0.1835 H   0  0  0  0  0  0  0  0  0  0  0  0
   -2.7834    4.0215   -1.4552 O   0  0  0  0  0  0  0  0  0  0  0  0
   -3.4622    4.6478   -1.7677 H   0  0  0  0  0  0  0  0  0  0  0  0
    2.6245    0.5664    0.1526 N   0  0  0  0  0  0  0  0  0  0  0  0
    2.4742    1.5880    0.1642 H   0  0  0  0  0  0  0  0  0  0  0  0
    3.8367    0.0025    0.1344 N   0  0  0  0  0  0  0  0  0  0  0  0
    4.9087    0.7416    0.2129 C   0  0  0  0  0  0  0  0  0  0  0  0
    4.8399    1.8494    0.2959 H   0  0  0  0  0  0  0  0  0  0  0  0
    6.2227    0.1316    0.1947 C   0  0  0  0  0  0  0  0  0  0  0  0
    6.3680   -1.2948    0.0899 C   0  0  0  0  0  0  0  0  0  0  0  0
    7.6683   -1.8475    0.0758 C   0  0  0  0  0  0  0  0  0  0  0  0
    7.7572   -2.9406   -0.0049 H   0  0  0  0  0  0  0  0  0  0  0  0
    8.7955   -1.0259    0.1618 C   0  0  0  0  0  0  0  0  0  0  0  0
    9.7974   -1.4821    0.1487 H   0  0  0  0  0  0  0  0  0  0  0  0
    8.6627    0.3741    0.2648 C   0  0  0  0  0  0  0  0  0  0  0  0
    9.5532    1.0156    0.3321 H   0  0  0  0  0  0  0  0  0  0  0  0
    7.3851    0.9359    0.2801 C   0  0  0  0  0  0  0  0  0  0  0  0
    7.2607    2.0281    0.3599 H   0  0  0  0  0  0  0  0  0  0  0  0
    5.3166   -2.1169    0.0059 O   0  0  0  0  0  0  0  0  0  0  0  0
    4.4797   -1.5496    0.0312 H   0  0  0  0  0  0  0  0  0  0  0  0
    1.5347   -1.4948   -0.0336 N   0  0  0  0  0  0  0  0  0  0  0  0
    0.3012   -2.0443   -0.1836 N   0  0  0  0  0  2  0  0  0  0  0  0
    0.2091   -3.3456   -0.3518 C   0  0  0  0  0  0  0  0  0  0  0  0
    1.1730   -3.8852   -0.3880 H   0  0  0  0  0  0  0  0  0  0  0  0
   -0.9988   -4.1090   -0.4950 C   0  0  0  0  0  0  0  0  0  0  0  0
   -2.3325   -3.5662   -0.3694 C   0  0  0  0  0  0  0  0  0  0  0  0
   -3.4294   -4.4628   -0.5442 C   0  0  0  0  0  0  0  0  0  0  0  0
   -4.4395   -4.0361   -0.4551 H   0  0  0  0  0  0  0  0  0  0  0  0
   -3.2399   -5.8143   -0.8149 C   0  0  0  0  0  0  0  0  0  0  0  0
   -4.1168   -6.4686   -0.9418 H   0  0  0  0  0  0  0  0  0  0  0  0
   -1.9362   -6.3499   -0.9254 C   0  0  0  0  0  0  0  0  0  0  0  0
   -1.7848   -7.4182   -1.1362 H   0  0  0  0  0  0  0  0  0  0  0  0
   -0.8477   -5.5015   -0.7640 C   0  0  0  0  0  3  0  0  0  0  0  0
    0.1760   -5.8997   -0.8479 H   0  0  0  0  0  0  0  0  0  0  0  0
   -2.6293   -2.3155   -0.0888 O   0  5  0  0  0  0  0  0  0  0  0  0
  1 18  1  0  0  0  0
  2  1  1  0  0  0  0
  3  2  1  0  0  0  0
  4  3  2  0  0  0  0
  5  4  1  0  0  0  0
  6  4  1  0  0  0  0
  6 14  1  0  0  0  0
  7  6  2  0  0  0  0
  8  7  1  0  0  0  0
  8 10  2  0  0  0  0
  9  8  1  0  0  0  0
 10 12  1  0  0  0  0
 11 10  1  0  0  0  0
 12 14  2  0  0  0  0
 12 13  1  0  0  0  0
 14 15  1  0  0  0  0
 16  7  1  0  0  0  0
 17 16  1  0  0  0  0
 18 19  1  0  0  0  0
 20 18  1  0  0  0  0
 20 21  2  0  0  0  0
 21 22  1  0  0  0  0
 23 21  1  0  0  0  0
 23 31  1  0  0  0  0
 24 23  2  0  0  0  0
 25 24  1  0  0  0  0
 25 27  2  0  0  0  0
 26 25  1  0  0  0  0
 27 29  1  0  0  0  0
 28 27  1  0  0  0  0
 29 31  2  0  0  0  0
 29 30  1  0  0  0  0
 31 32  1  0  0  0  0
 33 34  1  0  0  0  0
 33 24  1  0  0  0  0
 35  1  2  0  0  0  0
 36 35  1  0  0  0  0
 37 36  1  0  0  0  0
 38 37  1  0  0  0  0
 39 40  1  0  0  0  0
 39 37  2  0  0  0  0
 40 49  1  0  0  0  0
 41 42  1  0  0  0  0
 41 40  2  0  0  0  0
 43 41  1  0  0  0  0
 44 43  1  0  0  0  0
 45 43  2  0  0  0  0
 45 47  1  0  0  0  0
 46 45  1  0  0  0  0
 47 39  1  0  0  0  0
 48 47  1  0  0  0  0
M  CHG  1  49  -1
M  END
