19,32,44
 OpenBabel05122313063D

 47 50  0  0  1  0  0  0  0  0999 V2000
    7.1868   -2.0519    0.7289 Br  0  0  0  0  0  0  0  0  0  0  0  0
    0.2670   -0.2834    0.0655 C   0  0  0  0  0  0  0  0  0  0  0  0
    1.6530   -0.4826    0.0449 N   0  0  0  0  0  0  0  0  0  0  0  0
    2.6485    0.4284   -0.1142 N   0  0  0  0  0  0  0  0  0  0  0  0
    2.3869    1.7082    0.0017 C   0  0  0  0  0  0  0  0  0  0  0  0
    1.3663    2.0593    0.2442 H   0  0  0  0  0  0  0  0  0  0  0  0
    3.4356    2.6831   -0.2134 C   0  0  0  0  0  0  0  0  0  0  0  0
    4.7532    2.2965   -0.6269 C   0  0  0  0  0  0  0  0  0  0  0  0
    5.7302    3.2963   -0.8247 C   0  0  0  0  0  0  0  0  0  0  0  0
    6.7349    2.9822   -1.1415 H   0  0  0  0  0  0  0  0  0  0  0  0
    5.4278    4.6435   -0.6203 C   0  0  0  0  0  0  0  0  0  0  0  0
    6.1981    5.4126   -0.7740 H   0  0  0  0  0  0  0  0  0  0  0  0
    4.1293    5.0222   -0.2185 C   0  0  0  0  0  0  0  0  0  0  0  0
    3.1438    4.0570   -0.0198 C   0  0  0  0  0  0  0  0  0  0  0  0
    2.1310    4.3508    0.2925 H   0  0  0  0  0  0  0  0  0  0  0  0
    5.0841    1.0174   -0.8387 O   0  0  0  0  0  0  0  0  0  0  0  0
    4.2566    0.4685   -0.6767 H   0  0  0  0  0  0  0  0  0  0  0  0
    3.7266    6.8636    0.0512 Br  0  0  0  0  0  0  0  0  0  0  0  0
   -0.3028   -1.5257    0.0324 N   0  0  0  0  0  2  0  0  0  0  0  0
    0.6625   -2.4753    0.0121 N   0  0  0  0  0  0  0  0  0  0  0  0
    1.8499   -1.8758    0.0230 C   0  0  0  0  0  0  0  0  0  0  0  0
    3.0971   -2.6274   -0.0036 C   0  0  0  0  0  0  0  0  0  0  0  0
    3.0329   -4.0140   -0.3797 C   0  0  0  0  0  0  0  0  0  0  0  0
    5.4636   -4.1811   -0.1449 C   0  0  0  0  0  0  0  0  0  0  0  0
    6.3862   -4.7752   -0.2069 H   0  0  0  0  0  0  0  0  0  0  0  0
    5.5152   -2.8368    0.2661 C   0  0  0  0  0  0  0  0  0  0  0  0
    4.3515   -2.0680    0.3399 C   0  0  0  0  0  0  0  0  0  0  0  0
    4.4139   -1.0273    0.6752 H   0  0  0  0  0  0  0  0  0  0  0  0
    1.8778   -4.6382   -0.6623 O   0  0  0  0  0  0  0  0  0  0  0  0
    1.1349   -3.9777   -0.4858 H   0  0  0  0  0  0  0  0  0  0  0  0
   -0.4060    0.8577    0.0936 N   0  0  0  0  0  0  0  0  0  0  0  0
   -1.7423    0.5851    0.0576 N   0  0  0  0  0  2  0  0  0  0  0  0
   -2.6065    1.5765    0.0759 C   0  0  0  0  0  0  0  0  0  0  0  0
   -2.1746    2.5933    0.1116 H   0  0  0  0  0  0  0  0  0  0  0  0
   -4.0391    1.4563    0.0580 C   0  0  0  0  0  0  0  0  0  0  0  0
   -4.7737    0.2107    0.0115 C   0  0  1  0  0  3  0  0  0  0  0  0
   -6.1988    0.2865    0.0038 C   0  0  0  0  0  0  0  0  0  0  0  0
   -6.7482   -0.6657   -0.0294 H   0  0  0  0  0  0  0  0  0  0  0  0
   -6.8841    1.4952    0.0367 C   0  0  0  0  0  0  0  0  0  0  0  0
   -7.9833    1.5134    0.0296 H   0  0  0  0  0  0  0  0  0  0  0  0
   -6.1555    2.7053    0.0802 C   0  0  0  0  0  0  0  0  0  0  0  0
   -4.7678    2.6833    0.0908 C   0  0  0  0  0  0  0  0  0  0  0  0
   -4.2064    3.6285    0.1253 H   0  0  0  0  0  0  0  0  0  0  0  0
   -4.2532   -0.9981   -0.0299 O   0  0  0  0  0  1  0  0  0  0  0  0
   -7.0892    4.3662    0.1253 Br  0  0  0  0  0  0  0  0  0  0  0  0
    4.2303   -4.7552   -0.4595 C   0  0  0  0  0  0  0  0  0  0  0  0
    4.1587   -5.8083   -0.7669 H   0  0  0  0  0  0  0  0  0  0  0  0
  2 31  2  0  0  0  0
  3  2  1  0  0  0  0
  4  5  2  0  0  0  0
  4  3  1  0  0  0  0
  5  6  1  0  0  0  0
  7 14  1  0  0  0  0
  7  5  1  0  0  0  0
  8  7  2  0  0  0  0
  9  8  1  0  0  0  0
  9 11  2  0  0  0  0
 10  9  1  0  0  0  0
 11 13  1  0  0  0  0
 12 11  1  0  0  0  0
 13 14  2  0  0  0  0
 13 18  1  0  0  0  0
 14 15  1  0  0  0  0
 16 17  1  0  0  0  0
 16  8  1  0  0  0  0
 19  2  1  0  0  0  0
 20 21  2  0  0  0  0
 20 19  1  0  0  0  0
 21  3  1  0  0  0  0
 22 21  1  0  0  0  0
 22 27  1  0  0  0  0
 23 22  2  0  0  0  0
 24 26  1  0  0  0  0
 25 24  1  0  0  0  0
 26 27  2  0  0  0  0
 26  1  1  0  0  0  0
 27 28  1  0  0  0  0
 29 30  1  0  0  0  0
 29 23  1  0  0  0  0
 32 33  1  0  0  0  0
 32 31  1  0  0  0  0
 33 34  1  0  0  0  0
 35 33  2  0  0  0  0
 35 42  1  0  0  0  0
 36 44  1  6  0  0  0
 36 35  1  0  0  0  0
 37 36  1  0  0  0  0
 37 39  2  0  0  0  0
 38 37  1  0  0  0  0
 39 41  1  0  0  0  0
 40 39  1  0  0  0  0
 41 42  2  0  0  0  0
 41 45  1  0  0  0  0
 42 43  1  0  0  0  0
 46 23  1  0  0  0  0
 46 24  2  0  0  0  0
 47 46  1  0  0  0  0
M  END
