1,2,3
q = 0.0, confidence = 0.918

 50 51  0  0  1  0  0  0  0  0999 V2000
   -2.6000   -0.6296   -1.7381 O   0  5  0  0  0  0  0  0  0  0  0  0
   -1.9453    0.3034    0.4498 N   0  0  0  0  0  2  0  0  0  0  0  0
    0.4856    0.0469    0.4577 N   0  0  0  0  0  2  0  0  0  0  0  0
   -4.9798   -0.2718   -1.6586 C   0  0  0  0  0  0  0  0  0  0  0  0
   -3.6000   -0.2081   -1.0831 C   0  0  0  0  0  0  0  0  0  0  0  0
   -3.3031    0.3430    0.2298 C   0  0  0  0  0  0  0  0  0  0  0  0
   -4.1613    0.8460    1.2238 C   0  0  0  0  0  0  0  0  0  0  0  0
   -3.6160    1.2620    2.4495 C   0  0  0  0  0  0  0  0  0  0  0  0
   -2.2309    1.1545    2.6775 C   0  0  0  0  0  0  0  0  0  0  0  0
   -1.3951    0.6639    1.6601 C   0  0  0  0  0  0  0  0  0  0  0  0
    0.0420    0.5061    1.6326 C   0  0  2  0  0  3  0  0  0  0  0  0
    0.9061    0.8353    2.8089 C   0  0  0  0  0  0  0  0  0  0  0  0
    1.8882    0.1298    0.1546 C   0  0  0  0  0  0  0  0  0  0  0  0
    2.7098   -1.0167    0.2815 C   0  0  0  0  0  0  0  0  0  0  0  0
    4.0819   -0.8822   -0.0021 C   0  0  0  0  0  0  0  0  0  0  0  0
    4.6232    0.3437   -0.4031 C   0  0  0  0  0  0  0  0  0  0  0  0
    3.7885    1.4590   -0.5432 C   0  0  0  0  0  0  0  0  0  0  0  0
    2.4094    1.3818   -0.2786 C   0  0  0  0  0  0  0  0  0  0  0  0
    1.5354    2.6204   -0.4572 C   0  0  0  0  0  0  0  0  0  0  0  0
    1.7425    3.2786   -1.8311 C   0  0  0  0  0  0  0  0  0  0  0  0
    1.7656    3.6435    0.6701 C   0  0  0  0  0  0  0  0  0  0  0  0
    2.1316   -2.3701    0.6604 C   0  0  0  0  0  0  0  0  0  0  0  0
    2.9030   -3.0545    1.7979 C   0  0  0  0  0  0  0  0  0  0  0  0
    2.0444   -3.2616   -0.5916 C   0  0  0  0  0  0  0  0  0  0  0  0
   -5.2443    0.8845    1.0399 H   0  0  0  0  0  0  0  0  0  0  0  0
   -4.2724    1.6520    3.2402 H   0  0  0  0  0  0  0  0  0  0  0  0
   -1.7960    1.4404    3.6454 H   0  0  0  0  0  0  0  0  0  0  0  0
    1.9750    0.8468    2.5313 H   0  0  0  0  0  0  0  0  0  0  0  0
    0.7643    0.0663    3.5990 H   0  0  0  0  0  0  0  0  0  0  0  0
    0.6387    1.8147    3.2537 H   0  0  0  0  0  0  0  0  0  0  0  0
   -4.9296   -0.6574   -2.6924 H   0  0  0  0  0  0  0  0  0  0  0  0
   -5.4612    0.7280   -1.6579 H   0  0  0  0  0  0  0  0  0  0  0  0
   -5.6207   -0.9465   -1.0528 H   0  0  0  0  0  0  0  0  0  0  0  0
    4.7358   -1.7620    0.0947 H   0  0  0  0  0  0  0  0  0  0  0  0
    5.6994    0.4298   -0.6169 H   0  0  0  0  0  0  0  0  0  0  0  0
    4.2151    2.4175   -0.8755 H   0  0  0  0  0  0  0  0  0  0  0  0
    0.4800    2.2847   -0.4192 H   0  0  0  0  0  0  0  0  0  0  0  0
    1.5806    2.5429   -2.6411 H   0  0  0  0  0  0  0  0  0  0  0  0
    2.7613    3.7061   -1.9349 H   0  0  0  0  0  0  0  0  0  0  0  0
    1.0219    4.1109   -1.9675 H   0  0  0  0  0  0  0  0  0  0  0  0
    1.5801    3.2134    1.6728 H   0  0  0  0  0  0  0  0  0  0  0  0
    1.0966    4.5198    0.5454 H   0  0  0  0  0  0  0  0  0  0  0  0
    2.8115    4.0154    0.6585 H   0  0  0  0  0  0  0  0  0  0  0  0
    1.0912   -2.2127    1.0075 H   0  0  0  0  0  0  0  0  0  0  0  0
    2.3986   -3.9984    2.0888 H   0  0  0  0  0  0  0  0  0  0  0  0
    2.9614   -2.4070    2.6969 H   0  0  0  0  0  0  0  0  0  0  0  0
    3.9412   -3.3150    1.5040 H   0  0  0  0  0  0  0  0  0  0  0  0
    1.5182   -4.2096   -0.3604 H   0  0  0  0  0  0  0  0  0  0  0  0
    3.0557   -3.5051   -0.9801 H   0  0  0  0  0  0  0  0  0  0  0  0
    1.4813   -2.7504   -1.3970 H   0  0  0  0  0  0  0  0  0  0  0  0
  1  5  1  0  0  0  0
  2 10  1  0  0  0  0
  4 32  1  0  0  0  0
  4  5  1  0  0  0  0
  4 33  1  0  0  0  0
  5  6  2  0  0  0  0
  6  2  1  0  0  0  0
  6  7  1  0  0  0  0
  7  8  2  0  0  0  0
  8  9  1  0  0  0  0
  8 26  1  0  0  0  0
  9 27  1  0  0  0  0
 10  9  2  0  0  0  0
 11  3  1  6  0  0  0
 11 10  1  0  0  0  0
 11 12  1  0  0  0  0
 12 30  1  0  0  0  0
 12 29  1  0  0  0  0
 13 14  1  0  0  0  0
 13  3  1  0  0  0  0
 14 22  1  0  0  0  0
 15 34  1  0  0  0  0
 15 14  2  0  0  0  0
 16 15  1  0  0  0  0
 17 16  2  0  0  0  0
 17 18  1  0  0  0  0
 18 13  2  0  0  0  0
 19 37  1  0  0  0  0
 19 18  1  0  0  0  0
 19 21  1  0  0  0  0
 20 19  1  0  0  0  0
 21 41  1  0  0  0  0
 22 44  1  0  0  0  0
 22 23  1  0  0  0  0
 23 45  1  0  0  0  0
 23 46  1  0  0  0  0
 24 48  1  0  0  0  0
 24 22  1  0  0  0  0
 25  7  1  0  0  0  0
 28 12  1  0  0  0  0
 31  4  1  0  0  0  0
 35 16  1  0  0  0  0
 36 17  1  0  0  0  0
 38 20  1  0  0  0  0
 39 20  1  0  0  0  0
 40 20  1  0  0  0  0
 42 21  1  0  0  0  0
 43 21  1  0  0  0  0
 47 23  1  0  0  0  0
 49 24  1  0  0  0  0
 50 24  1  0  0  0  0
M  CHG  1   1  -1
M  END
