3,5,9
q = -1.0, confidence = 0.0

 30 31  0  0  0  0  0  0  0  0999 V2000
   -5.1295    0.6151   -1.6234 O   0  0  0  0  0  0  0  0  0  0  0  0
   -4.1769    0.2412   -1.6939 H   0  0  0  0  0  0  0  0  0  0  0  0
   -1.5554    1.2892    0.4936 O   0  5  0  0  0  0  0  0  0  0  0  0
   -2.6317    0.2336   -1.2820 N   0  0  0  0  0  0  0  0  0  0  0  0
   -1.4672   -0.4259   -1.4213 N   0  0  0  0  0  2  0  0  0  0  0  0
   -2.2105   -1.4369   -3.4224 N   0  0  0  0  0  0  0  0  0  0  0  0
   -2.9584   -0.7357   -3.4211 H   0  0  0  0  0  0  0  0  0  0  0  0
   -1.8708   -1.6732   -4.3554 H   0  0  0  0  0  0  0  0  0  0  0  0
    0.8963   -1.5754   -1.4696 N   0  0  0  0  0  2  0  0  0  0  0  0
   -5.0606    1.5429   -0.6596 C   0  0  0  0  0  0  0  0  0  0  0  0
   -3.8517    1.8212    0.0597 C   0  0  0  0  0  0  0  0  0  0  0  0
   -3.8636    2.8034    1.0760 C   0  0  0  0  0  0  0  0  0  0  0  0
   -2.9168    2.9864    1.6051 H   0  0  0  0  0  0  0  0  0  0  0  0
   -5.0249    3.5102    1.3898 C   0  0  0  0  0  0  0  0  0  0  0  0
   -5.0154    4.2748    2.1803 H   0  0  0  0  0  0  0  0  0  0  0  0
   -6.2110    3.2339    0.6776 C   0  0  0  0  0  0  0  0  0  0  0  0
   -7.1349    3.7848    0.9142 H   0  0  0  0  0  0  0  0  0  0  0  0
   -6.2312    2.2663   -0.3286 C   0  0  0  0  0  0  0  0  0  0  0  0
   -7.1489    2.0380   -0.8902 H   0  0  0  0  0  0  0  0  0  0  0  0
   -2.5904    1.1030   -0.2186 C   0  0  0  0  0  0  0  0  0  0  0  0
   -1.2632   -1.2141   -2.4490 C   0  0  0  0  0  0  0  0  0  0  0  0
    0.0380   -1.9131   -2.4636 C   0  0  0  0  0  0  0  0  0  0  0  0
    0.3898   -2.8764   -3.4333 C   0  0  0  0  0  0  0  0  0  0  0  0
   -0.3266   -3.1836   -4.2085 H   0  0  0  0  0  0  0  0  0  0  0  0
    1.6633   -3.4579   -3.3770 C   0  0  0  0  0  0  0  0  0  0  0  0
    1.9594   -4.2085   -4.1254 H   0  0  0  0  0  0  0  0  0  0  0  0
    2.5495   -3.0788   -2.3587 C   0  0  0  0  0  0  0  0  0  0  0  0
    3.5592   -3.5064   -2.2853 H   0  0  0  0  0  0  0  0  0  0  0  0
    2.1085   -2.1334   -1.4165 C   0  0  0  0  0  0  0  0  0  0  0  0
    2.7550   -1.8046   -0.5845 H   0  0  0  0  0  0  0  0  0  0  0  0
  1 10  1  0  0  0  0
  2  1  1  0  0  0  0
  4 20  2  0  0  0  0
  5  4  1  0  0  0  0
  6  7  1  0  0  0  0
  6 21  1  0  0  0  0
  8  6  1  0  0  0  0
  9 29  1  0  0  0  0
 10 18  2  0  0  0  0
 10 11  1  0  0  0  0
 11 12  2  0  0  0  0
 12 14  1  0  0  0  0
 12 13  1  0  0  0  0
 14 15  1  0  0  0  0
 16 17  1  0  0  0  0
 16 14  2  0  0  0  0
 18 16  1  0  0  0  0
 19 18  1  0  0  0  0
 20 11  1  0  0  0  0
 20  3  1  0  0  0  0
 21  5  1  0  0  0  0
 22 21  2  0  0  0  0
 22  9  1  0  0  0  0
 23 25  2  0  0  0  0
 23 22  1  0  0  0  0
 24 23  1  0  0  0  0
 25 27  1  0  0  0  0
 26 25  1  0  0  0  0
 27 28  1  0  0  0  0
 27 29  2  0  0  0  0
 29 30  1  0  0  0  0
M  CHG  1   3  -1
M  END
