1,4,5
q = -1.0, confidence = 0.02

 35 37  0  0  0  0  0  0  0  0999 V2000
    1.5490    1.9625    0.8114 O   0  5  0  0  0  0  0  0  0  0  0  0
   -5.2577    0.7076   -0.8839 N   0  0  0  0  0  0  0  0  0  0  0  0
   -2.6605    1.0196    0.0540 N   0  0  0  0  0  0  0  0  0  0  0  0
   -0.4815    0.0404    0.2211 N   0  0  0  0  0  2  0  0  0  0  0  0
    1.2372   -1.9633    0.4033 N   0  0  0  0  0  2  0  0  0  0  0  0
   -2.3310    4.5464    0.2766 N   0  0  0  0  0  0  0  0  0  0  0  0
    0.8664    4.1043    0.9234 N   0  0  0  0  0  0  0  0  0  0  0  0
    1.8246    4.3602    1.1503 H   0  0  0  0  0  0  0  0  0  0  0  0
    0.1339    4.8135    0.8736 H   0  0  0  0  0  0  0  0  0  0  0  0
   -6.5817    0.6668   -1.0633 C   0  0  0  0  0  0  0  0  0  0  0  0
   -7.0174    1.4865   -1.6630 H   0  0  0  0  0  0  0  0  0  0  0  0
   -7.4114   -0.3410   -0.5378 C   0  0  0  0  0  0  0  0  0  0  0  0
   -8.4974   -0.3191   -0.7134 H   0  0  0  0  0  0  0  0  0  0  0  0
   -6.8146   -1.3618    0.2134 C   0  0  0  0  0  0  0  0  0  0  0  0
   -7.4219   -2.1663    0.6555 H   0  0  0  0  0  0  0  0  0  0  0  0
   -5.4262   -1.3352    0.4004 C   0  0  0  0  0  0  0  0  0  0  0  0
   -4.9303   -2.1091    1.0045 H   0  0  0  0  0  0  0  0  0  0  0  0
   -4.6830   -0.2763   -0.1661 C   0  0  0  0  0  0  0  0  0  0  0  0
   -3.1998   -0.1911    0.0205 C   0  0  0  0  0  0  0  0  0  0  0  0
   -2.4149   -1.3726    0.1507 C   0  0  0  0  0  0  0  0  0  0  0  0
   -2.8710   -2.3688    0.1300 H   0  0  0  0  0  0  0  0  0  0  0  0
   -1.0321   -1.1908    0.2190 C   0  0  0  0  0  0  0  0  0  0  0  0
   -0.0614   -2.3209    0.2912 C   0  0  0  0  0  0  0  0  0  0  0  0
   -0.4330   -3.6781    0.2579 C   0  0  0  0  0  0  0  0  0  0  0  0
   -1.4883   -3.9643    0.1587 H   0  0  0  0  0  0  0  0  0  0  0  0
    0.5635   -4.6573    0.3461 C   0  0  0  0  0  0  0  0  0  0  0  0
    0.2929   -5.7235    0.3203 H   0  0  0  0  0  0  0  0  0  0  0  0
    1.9057   -4.2642    0.4632 C   0  0  0  0  0  0  0  0  0  0  0  0
    2.7152   -5.0041    0.5361 H   0  0  0  0  0  0  0  0  0  0  0  0
    2.1982   -2.8949    0.4817 C   0  0  0  0  0  0  0  0  0  0  0  0
    3.2219   -2.5004    0.5703 H   0  0  0  0  0  0  0  0  0  0  0  0
   -1.3080    1.1378    0.2098 C   0  0  0  0  0  0  0  0  0  0  0  0
   -0.7900    2.4585    0.3685 C   0  0  0  0  0  0  0  0  0  0  0  0
   -1.7022    3.5495    0.2993 C   0  0  0  0  0  0  0  0  0  0  0  0
    0.5883    2.7921    0.6963 C   0  0  0  0  0  0  0  0  0  0  0  0
  2 18  1  0  0  0  0
  3 32  2  0  0  0  0
  5 30  1  0  0  0  0
  6 34  3  0  0  0  0
  7  8  1  0  0  0  0
  9  7  1  0  0  0  0
 10  2  2  0  0  0  0
 10 12  1  0  0  0  0
 11 10  1  0  0  0  0
 12 14  2  0  0  0  0
 13 12  1  0  0  0  0
 14 16  1  0  0  0  0
 14 15  1  0  0  0  0
 16 17  1  0  0  0  0
 18 19  1  0  0  0  0
 18 16  2  0  0  0  0
 19  3  1  0  0  0  0
 19 20  2  0  0  0  0
 20 22  1  0  0  0  0
 21 20  1  0  0  0  0
 22  4  1  0  0  0  0
 22 23  2  0  0  0  0
 23  5  1  0  0  0  0
 24 23  1  0  0  0  0
 24 26  2  0  0  0  0
 25 24  1  0  0  0  0
 26 28  1  0  0  0  0
 27 26  1  0  0  0  0
 28 30  2  0  0  0  0
 28 29  1  0  0  0  0
 30 31  1  0  0  0  0
 32  4  1  0  0  0  0
 32 33  1  0  0  0  0
 33 35  2  0  0  0  0
 34 33  1  0  0  0  0
 35  1  1  0  0  0  0
 35  7  1  0  0  0  0
M  CHG  1   1  -1
M  END
