1,4,5
q = -1.0, confidence = 0.016

 31 31  0  0  0  0  0  0  0  0999 V2000
   -0.2011   -0.7446    1.1087 O   0  5  0  0  0  0  0  0  0  0  0  0
    4.7759   -4.4505    0.3452 O   0  0  0  0  0  0  0  0  0  0  0  0
    3.6354   -5.0305   -1.4327 O   0  0  0  0  0  0  0  0  0  0  0  0
   -1.5416   -1.4681   -1.2199 N   0  0  0  0  0  2  0  0  0  0  0  0
   -2.9354    0.8244   -1.2372 N   0  0  0  0  0  0  0  0  0  0  0  0
    3.8030   -4.3779   -0.4028 N   0  0  0  0  0  0  0  0  0  0  0  0
    0.5930   -2.3876   -0.5032 C   0  0  0  0  0  0  0  0  0  0  0  0
    0.7118   -1.5838    0.6925 C   0  0  0  0  0  0  0  0  0  0  0  0
    1.8832   -1.7446    1.4938 C   0  0  0  0  0  0  0  0  0  0  0  0
    1.9695   -1.1254    2.3976 H   0  0  0  0  0  0  0  0  0  0  0  0
    2.8790   -2.6445    1.1428 C   0  0  0  0  0  0  0  0  0  0  0  0
    3.7872   -2.7701    1.7489 H   0  0  0  0  0  0  0  0  0  0  0  0
    2.7387   -3.4206   -0.0292 C   0  0  0  0  0  0  0  0  0  0  0  0
    1.6207   -3.3034   -0.8402 C   0  0  0  0  0  0  0  0  0  0  0  0
    1.5562   -3.9303   -1.7414 H   0  0  0  0  0  0  0  0  0  0  0  0
   -0.5499   -2.3030   -1.3638 C   0  0  0  0  0  3  0  0  0  0  0  0
   -0.5861   -3.0103   -2.2169 H   0  0  0  0  0  0  0  0  0  0  0  0
   -2.6351   -1.3988   -2.1761 C   0  0  0  0  0  0  0  0  0  0  0  0
   -3.5675   -1.8051   -1.7166 H   0  0  0  0  0  0  0  0  0  0  0  0
   -2.4338   -2.0029   -3.0857 H   0  0  0  0  0  0  0  0  0  0  0  0
   -2.8166    0.0724   -2.5166 C   0  0  0  0  0  0  0  0  0  0  0  0
   -1.9107    0.4520   -3.0283 H   0  0  0  0  0  0  0  0  0  0  0  0
   -3.6960    0.2368   -3.1718 H   0  0  0  0  0  0  0  0  0  0  0  0
   -2.8379    2.3029   -1.4165 C   0  0  0  0  0  0  0  0  0  0  0  0
   -1.8171    2.5053   -1.7939 H   0  0  0  0  0  0  0  0  0  0  0  0
   -2.8998    2.7524   -0.4073 H   0  0  0  0  0  0  0  0  0  0  0  0
   -3.9049    2.8973   -2.3285 C   0  0  0  0  0  0  0  0  0  0  0  0
   -3.8063    2.5625   -3.3795 H   0  0  0  0  0  0  0  0  0  0  0  0
   -3.8113    4.0008   -2.3294 H   0  0  0  0  0  0  0  0  0  0  0  0
   -4.9309    2.6559   -1.9788 H   0  0  0  0  0  0  0  0  0  0  0  0
   -3.8765    0.6301   -0.8545 H   0  0  0  0  0  0  0  0  0  0  0  0
  3  6  2  0  0  0  0
  5 31  1  0  0  0  0
  6 13  1  0  0  0  0
  6  2  2  0  0  0  0
  7  8  1  0  0  0  0
  8  1  1  0  0  0  0
  8  9  2  0  0  0  0
  9 10  1  0  0  0  0
 11  9  1  0  0  0  0
 11 12  1  0  0  0  0
 13 11  2  0  0  0  0
 14  7  2  0  0  0  0
 14 13  1  0  0  0  0
 15 14  1  0  0  0  0
 16  4  1  0  0  0  0
 16  7  1  0  0  0  0
 17 16  1  0  0  0  0
 18 19  1  0  0  0  0
 18  4  1  0  0  0  0
 20 18  1  0  0  0  0
 21 18  1  0  0  0  0
 21  5  1  0  0  0  0
 22 21  1  0  0  0  0
 23 21  1  0  0  0  0
 24  5  1  0  0  0  0
 24 26  1  0  0  0  0
 25 24  1  0  0  0  0
 27 30  1  0  0  0  0
 27 24  1  0  0  0  0
 28 27  1  0  0  0  0
 29 27  1  0  0  0  0
M  CHG  1   1  -1
M  END
