1,2,3
q = -1.0, confidence = 0.018

 26 27  0  0  0  0  0  0  0  0999 V2000
   -0.5700   -0.8388   -1.4175 O   0  5  0  0  0  0  0  0  0  0  0  0
    0.6153    1.5247   -0.1178 N   0  0  0  0  0  2  0  0  0  0  0  0
   -0.7432   -0.3651    1.3647 N   0  0  0  0  0  0  0  0  0  0  0  0
   -0.7091   -1.0367    2.1440 H   0  0  0  0  0  0  0  0  0  0  0  0
    1.0061    2.3284   -1.1231 C   0  0  0  0  0  3  0  0  0  0  0  0
    1.6945    1.8815   -1.8564 H   0  0  0  0  0  0  0  0  0  0  0  0
    0.5585    3.6498   -1.2354 C   0  0  0  0  0  0  0  0  0  0  0  0
    0.9022    4.2754   -2.0712 H   0  0  0  0  0  0  0  0  0  0  0  0
   -0.3375    4.1395   -0.2749 C   0  0  0  0  0  0  0  0  0  0  0  0
   -0.7204    5.1690   -0.3383 H   0  0  0  0  0  0  0  0  0  0  0  0
   -0.7548    3.2912    0.7599 C   0  0  0  0  0  0  0  0  0  0  0  0
   -1.4744    3.6313    1.5185 H   0  0  0  0  0  0  0  0  0  0  0  0
   -0.2533    1.9829    0.8156 C   0  0  0  0  0  0  0  0  0  0  0  0
   -0.6231    1.0075    1.9100 C   0  0  0  0  0  0  0  0  0  0  0  0
    0.1891    0.9981    2.6697 H   0  0  0  0  0  0  0  0  0  0  0  0
   -1.5578    1.3390    2.4104 H   0  0  0  0  0  0  0  0  0  0  0  0
   -1.9404   -0.5836    0.5506 C   0  0  0  0  0  0  0  0  0  0  0  0
   -1.7529   -0.7927   -0.8565 C   0  0  0  0  0  0  0  0  0  0  0  0
   -2.9447   -0.9614   -1.6288 C   0  0  0  0  0  0  0  0  0  0  0  0
   -2.8220   -1.1207   -2.7104 H   0  0  0  0  0  0  0  0  0  0  0  0
   -4.2076   -0.9430   -1.0375 C   0  0  0  0  0  0  0  0  0  0  0  0
   -5.0987   -1.0858   -1.6694 H   0  0  0  0  0  0  0  0  0  0  0  0
   -4.3632   -0.7560    0.3525 C   0  0  0  0  0  0  0  0  0  0  0  0
   -5.3608   -0.7567    0.8145 H   0  0  0  0  0  0  0  0  0  0  0  0
   -3.2163   -0.5742    1.1356 C   0  0  0  0  0  0  0  0  0  0  0  0
   -3.3086   -0.4287    2.2257 H   0  0  0  0  0  0  0  0  0  0  0  0
  1 18  1  0  0  0  0
  2 13  1  0  0  0  0
  3 14  1  0  0  0  0
  3  4  1  0  0  0  0
  5  2  1  0  0  0  0
  6  5  1  0  0  0  0
  7  5  1  0  0  0  0
  7  9  2  0  0  0  0
  8  7  1  0  0  0  0
  9 11  1  0  0  0  0
 10  9  1  0  0  0  0
 11 13  2  0  0  0  0
 11 12  1  0  0  0  0
 13 14  1  0  0  0  0
 14 16  1  0  0  0  0
 14 15  1  0  0  0  0
 17 25  1  0  0  0  0
 17  3  1  0  0  0  0
 18 17  2  0  0  0  0
 19 21  2  0  0  0  0
 19 18  1  0  0  0  0
 20 19  1  0  0  0  0
 21 23  1  0  0  0  0
 22 21  1  0  0  0  0
 23 24  1  0  0  0  0
 23 25  2  0  0  0  0
 25 26  1  0  0  0  0
M  CHG  1   1  -1
M  END
