1,2,4
q = -2.0, confidence = 0.882

 22 23  0  0  0  0  0  0  0  0999 V2000
   -1.3235    1.0603   -1.0562 O   0  5  0  0  0  0  0  0  0  0  0  0
   -2.0159   -0.9790    0.4542 N   0  0  0  0  0  2  0  0  0  0  0  0
   -0.7335   -2.5569    1.6239 C   0  0  0  0  0  0  0  0  0  0  0  0
    0.3682   -1.7268    1.3508 N   0  0  0  0  0  0  0  0  0  0  0  0
   -1.9863   -2.1324    1.1338 C   0  0  0  0  0  3  0  0  0  0  0  0
   -2.8988   -2.7366    1.2734 H   0  0  0  0  0  0  0  0  0  0  0  0
   -3.5863    1.4638   -1.7798 C   0  0  0  0  0  0  0  0  0  0  0  0
   -3.2388    2.3064   -2.3947 H   0  0  0  0  0  0  0  0  0  0  0  0
   -2.6344    0.7487   -1.0268 C   0  0  0  0  0  0  0  0  0  0  0  0
   -3.0754   -0.3579   -0.2298 C   0  0  0  0  0  0  0  0  0  0  0  0
   -0.2746   -3.7365    2.2727 C   0  0  0  0  0  3  0  0  0  0  0  0
   -0.8977   -4.5730    2.6101 H   0  0  0  0  0  0  0  0  0  0  0  0
    1.4720   -2.3686    1.7850 C   0  0  0  0  0  0  0  0  0  0  0  0
    2.4660   -1.9168    1.6737 H   0  0  0  0  0  0  0  0  0  0  0  0
    1.1196   -3.6153    2.3711 C   0  0  0  0  0  0  0  0  0  0  0  0
    1.8156   -4.3319    2.8222 H   0  0  0  0  0  0  0  0  0  0  0  0
   -4.4312   -0.7253   -0.1945 C   0  0  0  0  0  0  0  0  0  0  0  0
   -4.7600   -1.5730    0.4254 H   0  0  0  0  0  0  0  0  0  0  0  0
   -5.3629    0.0038   -0.9470 C   0  0  0  0  0  0  0  0  0  0  0  0
   -6.4261   -0.2759   -0.9194 H   0  0  0  0  0  0  0  0  0  0  0  0
   -4.9372    1.0919   -1.7334 C   0  0  0  0  0  0  0  0  0  0  0  0
   -5.6738    1.6598   -2.3218 H   0  0  0  0  0  0  0  0  0  0  0  0
  1  9  1  0  0  0  0
  2  5  1  0  0  0  0
  3 11  1  0  0  0  0
  4  3  2  0  0  0  0
  4 13  1  0  0  0  0
  5  6  1  0  0  0  0
  5  3  1  0  0  0  0
  7 21  2  0  0  0  0
  7  9  1  0  0  0  0
  8  7  1  0  0  0  0
  9 10  2  0  0  0  0
 10 17  1  0  0  0  0
 10  2  1  0  0  0  0
 11 15  1  0  0  0  0
 11 12  1  0  0  0  0
 13 15  2  0  0  0  0
 14 13  1  0  0  0  0
 15 16  1  0  0  0  0
 17 18  1  0  0  0  0
 19 20  1  0  0  0  0
 19 17  2  0  0  0  0
 21 19  1  0  0  0  0
 22 21  1  0  0  0  0
M  CHG  1   1  -1
M  END
