1,13,20
q = -1.0, confidence = 0.022

 58 58  0  0  0  0  0  0  0  0999 V2000
    0.8988    0.9869   -0.4563 O   0  5  0  0  0  0  0  0  0  0  0  0
   -0.3327    0.4808   -0.3668 C   0  0  0  0  0  0  0  0  0  0  0  0
   -0.5263   -0.9257   -0.5266 C   0  0  0  0  0  0  0  0  0  0  0  0
   -1.8022   -1.5068   -0.4253 C   0  0  0  0  0  0  0  0  0  0  0  0
   -1.8875   -2.5959   -0.5598 H   0  0  0  0  0  0  0  0  0  0  0  0
   -2.9397   -0.7244   -0.1774 C   0  0  0  0  0  0  0  0  0  0  0  0
   -2.7378    0.6685   -0.0423 C   0  0  0  0  0  0  0  0  0  0  0  0
   -3.6195    1.2959    0.1487 H   0  0  0  0  0  0  0  0  0  0  0  0
   -1.4876    1.3009   -0.1270 C   0  0  0  0  0  0  0  0  0  0  0  0
    0.6800   -1.7495   -0.8784 C   0  0  0  0  0  0  0  0  0  0  0  0
    0.3840   -2.7865   -1.1650 H   0  0  0  0  0  0  0  0  0  0  0  0
    1.1771   -1.2842   -1.7530 H   0  0  0  0  0  0  0  0  0  0  0  0
    1.7009   -1.8196    0.2118 N   0  0  0  0  0  0  0  0  0  0  0  0
    3.0061   -2.2936   -0.2821 C   0  0  0  0  0  0  0  0  0  0  0  0
    2.8988   -3.2386   -0.8686 H   0  0  0  0  0  0  0  0  0  0  0  0
    3.6307   -2.5400    0.6015 H   0  0  0  0  0  0  0  0  0  0  0  0
    3.7103   -1.2419   -1.1431 C   0  0  0  0  0  0  0  0  0  0  0  0
    4.6825   -1.6500   -1.5093 H   0  0  0  0  0  0  0  0  0  0  0  0
    3.1013   -1.0272   -2.0421 H   0  0  0  0  0  0  0  0  0  0  0  0
    3.9041    0.0312   -0.4212 N   0  0  0  0  0  0  0  0  0  0  0  0
    1.2125   -2.6309    1.3334 C   0  0  0  0  0  0  0  0  0  0  0  0
    1.0984   -3.7037    1.0473 H   0  0  0  0  0  0  0  0  0  0  0  0
    0.2243   -2.2458    1.6492 H   0  0  0  0  0  0  0  0  0  0  0  0
    1.9123   -2.5520    2.1880 H   0  0  0  0  0  0  0  0  0  0  0  0
    5.0883   -0.0015    0.4450 C   0  0  0  0  0  0  0  0  0  0  0  0
    6.0299   -0.0901   -0.1479 H   0  0  0  0  0  0  0  0  0  0  0  0
    5.0258   -0.8550    1.1468 H   0  0  0  0  0  0  0  0  0  0  0  0
    5.1269    0.9213    1.0543 H   0  0  0  0  0  0  0  0  0  0  0  0
    3.9300    1.1825   -1.3353 C   0  0  0  0  0  0  0  0  0  0  0  0
    4.7619    1.1103   -2.0750 H   0  0  0  0  0  0  0  0  0  0  0  0
    4.0632    2.1112   -0.7472 H   0  0  0  0  0  0  0  0  0  0  0  0
    2.9554    1.2488   -1.8559 H   0  0  0  0  0  0  0  0  0  0  0  0
   -1.3379    2.8235    0.0478 C   0  0  0  0  0  0  0  0  0  0  0  0
   -0.6833    3.4270   -1.2168 C   0  0  0  0  0  0  0  0  0  0  0  0
   -0.5506    4.5230   -1.0962 H   0  0  0  0  0  0  0  0  0  0  0  0
   -1.3229    3.2552   -2.1069 H   0  0  0  0  0  0  0  0  0  0  0  0
    0.3042    2.9639   -1.3972 H   0  0  0  0  0  0  0  0  0  0  0  0
   -0.4541    3.1090    1.2846 C   0  0  0  0  0  0  0  0  0  0  0  0
   -0.9350    2.7232    2.2067 H   0  0  0  0  0  0  0  0  0  0  0  0
   -0.3012    4.2019    1.4082 H   0  0  0  0  0  0  0  0  0  0  0  0
    0.5343    2.6250    1.1816 H   0  0  0  0  0  0  0  0  0  0  0  0
   -2.6915    3.5242    0.2606 C   0  0  0  0  0  0  0  0  0  0  0  0
   -3.2055    3.1707    1.1777 H   0  0  0  0  0  0  0  0  0  0  0  0
   -3.3767    3.3748   -0.5988 H   0  0  0  0  0  0  0  0  0  0  0  0
   -2.5286    4.6156    0.3716 H   0  0  0  0  0  0  0  0  0  0  0  0
   -4.3581   -1.3086   -0.0546 C   0  0  0  0  0  0  0  0  0  0  0  0
   -5.2669   -0.6898   -1.1410 C   0  0  0  0  0  0  0  0  0  0  0  0
   -6.3004   -1.0889   -1.0645 H   0  0  0  0  0  0  0  0  0  0  0  0
   -4.8808   -0.9196   -2.1548 H   0  0  0  0  0  0  0  0  0  0  0  0
   -5.3233    0.4129   -1.0463 H   0  0  0  0  0  0  0  0  0  0  0  0
   -4.9322   -0.9776    1.3419 C   0  0  0  0  0  0  0  0  0  0  0  0
   -4.3016   -1.4173    2.1412 H   0  0  0  0  0  0  0  0  0  0  0  0
   -5.9611   -1.3808    1.4506 H   0  0  0  0  0  0  0  0  0  0  0  0
   -4.9783    0.1159    1.5159 H   0  0  0  0  0  0  0  0  0  0  0  0
   -4.3695   -2.8368   -0.2300 C   0  0  0  0  0  0  0  0  0  0  0  0
   -3.7509   -3.3430    0.5388 H   0  0  0  0  0  0  0  0  0  0  0  0
   -3.9927   -3.1386   -1.2282 H   0  0  0  0  0  0  0  0  0  0  0  0
   -5.4049   -3.2221   -0.1329 H   0  0  0  0  0  0  0  0  0  0  0  0
  1  2  1  0  0  0  0
  2  9  1  0  0  0  0
  3  4  1  0  0  0  0
  3  2  2  0  0  0  0
  4  6  2  0  0  0  0
  5  4  1  0  0  0  0
  6 46  1  0  0  0  0
  6  7  1  0  0  0  0
  7  8  1  0  0  0  0
  9  7  2  0  0  0  0
  9 33  1  0  0  0  0
 10  3  1  0  0  0  0
 10 13  1  0  0  0  0
 11 10  1  0  0  0  0
 12 10  1  0  0  0  0
 13 21  1  0  0  0  0
 14 13  1  0  0  0  0
 14 16  1  0  0  0  0
 15 14  1  0  0  0  0
 17 20  1  0  0  0  0
 17 14  1  0  0  0  0
 18 17  1  0  0  0  0
 19 17  1  0  0  0  0
 20 25  1  0  0  0  0
 21 23  1  0  0  0  0
 21 24  1  0  0  0  0
 22 21  1  0  0  0  0
 25 28  1  0  0  0  0
 25 27  1  0  0  0  0
 26 25  1  0  0  0  0
 29 31  1  0  0  0  0
 29 20  1  0  0  0  0
 30 29  1  0  0  0  0
 32 29  1  0  0  0  0
 33 42  1  0  0  0  0
 33 38  1  0  0  0  0
 34 35  1  0  0  0  0
 34 33  1  0  0  0  0
 36 34  1  0  0  0  0
 37 34  1  0  0  0  0
 38 40  1  0  0  0  0
 38 39  1  0  0  0  0
 41 38  1  0  0  0  0
 42 45  1  0  0  0  0
 42 43  1  0  0  0  0
 44 42  1  0  0  0  0
 46 51  1  0  0  0  0
 47 48  1  0  0  0  0
 47 50  1  0  0  0  0
 47 46  1  0  0  0  0
 49 47  1  0  0  0  0
 51 53  1  0  0  0  0
 51 54  1  0  0  0  0
 51 52  1  0  0  0  0
 55 58  1  0  0  0  0
 55 46  1  0  0  0  0
 55 56  1  0  0  0  0
 57 55  1  0  0  0  0
M  CHG  1   1  -1
M  END
