4,5,6
q = -1.0, confidence = 0.0

 29 28  0  0  0  0  0  0  0  0999 V2000
    4.6738    0.5758   -0.4970 F   0  0  0  0  0  0  0  0  0  0  0  0
    3.7976    0.6307    1.5054 F   0  0  0  0  0  0  0  0  0  0  0  0
    3.9621   -1.2653    0.4358 F   0  0  0  0  0  0  0  0  0  0  0  0
    1.3860   -0.2867    0.4257 O   0  5  0  0  0  0  0  0  0  0  0  0
   -0.3197    1.1331   -1.4393 N   0  0  0  0  0  2  0  0  0  0  0  0
   -1.1509    1.2649    1.3629 N   0  0  0  0  0  0  0  0  0  0  0  0
    3.7040    0.0479    0.2837 C   0  0  0  0  0  0  0  0  0  0  0  0
    2.2970    0.2692   -0.2868 C   0  0  0  0  0  0  0  0  0  0  0  0
    2.1289    1.0671   -1.4188 C   0  0  0  0  0  0  0  0  0  0  0  0
    3.0231    1.4624   -1.9145 H   0  0  0  0  0  0  0  0  0  0  0  0
    0.8646    1.5354   -1.8615 C   0  0  0  0  0  3  0  0  0  0  0  0
    0.8756    2.3618   -2.6035 H   0  0  0  0  0  0  0  0  0  0  0  0
   -1.4675    1.9778   -1.7508 C   0  0  0  0  0  0  0  0  0  0  0  0
   -2.3320    1.3353   -2.0151 H   0  0  0  0  0  0  0  0  0  0  0  0
   -1.2458    2.6276   -2.6277 H   0  0  0  0  0  0  0  0  0  0  0  0
   -1.8199    2.8704   -0.5498 C   0  0  0  0  0  0  0  0  0  0  0  0
   -2.6965    3.4956   -0.8217 H   0  0  0  0  0  0  0  0  0  0  0  0
   -0.9844    3.5810   -0.3746 H   0  0  0  0  0  0  0  0  0  0  0  0
   -2.1897    2.1535    0.7513 C   0  0  0  0  0  0  0  0  0  0  0  0
   -2.4655    2.9258    1.5087 H   0  0  0  0  0  0  0  0  0  0  0  0
   -3.0889    1.5259    0.5905 H   0  0  0  0  0  0  0  0  0  0  0  0
    0.0741    2.0301    1.6839 C   0  0  0  0  0  0  0  0  0  0  0  0
    0.8113    1.3584    2.1590 H   0  0  0  0  0  0  0  0  0  0  0  0
   -0.1623    2.8737    2.3714 H   0  0  0  0  0  0  0  0  0  0  0  0
    0.5330    2.4305    0.7633 H   0  0  0  0  0  0  0  0  0  0  0  0
   -1.7126    0.7279    2.6248 C   0  0  0  0  0  0  0  0  0  0  0  0
   -0.9687    0.0731    3.1130 H   0  0  0  0  0  0  0  0  0  0  0  0
   -2.6196    0.1348    2.4071 H   0  0  0  0  0  0  0  0  0  0  0  0
   -1.9772    1.5579    3.3201 H   0  0  0  0  0  0  0  0  0  0  0  0
  1  7  1  0  0  0  0
  6 22  1  0  0  0  0
  6 26  1  0  0  0  0
  7  3  1  0  0  0  0
  7  2  1  0  0  0  0
  8  7  1  0  0  0  0
  8  4  1  0  0  0  0
  9  8  2  0  0  0  0
 10  9  1  0  0  0  0
 11  5  1  0  0  0  0
 11  9  1  0  0  0  0
 12 11  1  0  0  0  0
 13  5  1  0  0  0  0
 13 16  1  0  0  0  0
 14 13  1  0  0  0  0
 15 13  1  0  0  0  0
 16 18  1  0  0  0  0
 16 19  1  0  0  0  0
 17 16  1  0  0  0  0
 19  6  1  0  0  0  0
 19 20  1  0  0  0  0
 21 19  1  0  0  0  0
 22 23  1  0  0  0  0
 22 24  1  0  0  0  0
 25 22  1  0  0  0  0
 26 27  1  0  0  0  0
 26 29  1  0  0  0  0
 28 26  1  0  0  0  0
M  CHG  1   4  -1
M  END
