3,4,8
q = -1.0, confidence = 0.022

 24 24  0  0  1  0  0  0  0  0999 V2000
    7.0498   -0.1780    0.0056 Br  0  0  0  0  0  0  0  0  0  0  0  0
   -2.0661    4.7380    0.1280 S   0  0  0  0  0  0  0  0  0  0  0  0
    1.0066   -0.5696   -0.1303 O   0  0  0  0  0  1  0  0  0  0  0  0
   -1.5437    2.0875   -0.0254 N   0  0  0  0  0  2  0  0  0  0  0  0
   -2.5579    2.0104   -0.1649 H   0  0  0  0  0  0  0  0  0  0  0  0
    0.3095    3.3754    0.1029 N   0  0  0  0  0  0  0  0  0  0  0  0
    0.8402    4.2309    0.2864 H   0  0  0  0  0  0  0  0  0  0  0  0
    0.9410    2.1564    0.0521 N   0  0  0  0  0  2  0  0  0  0  0  0
   -0.9234    6.0704   -0.3639 C   0  0  0  0  0  0  0  0  0  0  0  0
   -1.5638    6.9666   -0.4698 H   0  0  0  0  0  0  0  0  0  0  0  0
   -0.1702    6.2827    0.4209 H   0  0  0  0  0  0  0  0  0  0  0  0
   -0.4479    5.8542   -1.3395 H   0  0  0  0  0  0  0  0  0  0  0  0
   -1.0480    3.3105    0.0539 C   0  0  2  0  0  3  0  0  0  0  0  0
    2.2592    2.0919    0.0869 C   0  0  0  0  0  0  0  0  0  0  0  0
    2.8334    3.0350    0.1696 H   0  0  0  0  0  0  0  0  0  0  0  0
    2.9807    0.8684    0.0163 C   0  0  0  0  0  0  0  0  0  0  0  0
    4.4085    0.9173    0.0507 C   0  0  0  0  0  0  0  0  0  0  0  0
    4.9111    1.8909    0.1467 H   0  0  0  0  0  0  0  0  0  0  0  0
    5.1557   -0.2454   -0.0406 C   0  0  0  0  0  0  0  0  0  0  0  0
    4.5049   -1.5016   -0.1749 C   0  0  0  0  0  0  0  0  0  0  0  0
    5.1081   -2.4174   -0.2547 H   0  0  0  0  0  0  0  0  0  0  0  0
    3.1206   -1.5743   -0.2069 C   0  0  0  0  0  0  0  0  0  0  0  0
    2.6062   -2.5392   -0.3181 H   0  0  0  0  0  0  0  0  0  0  0  0
    2.3073   -0.4054   -0.1045 C   0  0  2  0  0  3  0  0  0  0  0  0
  5  4  1  0  0  0  0
  6  7  1  0  0  0  0
  8 14  1  0  0  0  0
  8  6  1  0  0  0  0
  9  2  1  0  0  0  0
  9 11  1  0  0  0  0
 10  9  1  0  0  0  0
 12  9  1  0  0  0  0
 13  4  1  1  0  0  0
 13  6  1  0  0  0  0
 13  2  1  0  0  0  0
 14 15  1  0  0  0  0
 16 17  1  0  0  0  0
 16 14  2  0  0  0  0
 17 18  1  0  0  0  0
 19  1  1  0  0  0  0
 19 17  2  0  0  0  0
 20 19  1  0  0  0  0
 21 20  1  0  0  0  0
 22 20  2  0  0  0  0
 22 24  1  0  0  0  0
 23 22  1  0  0  0  0
 24  3  1  6  0  0  0
 24 16  1  0  0  0  0
M  END
