1,2,3
q = -1.0, confidence = 0.03

 44 46  0  0  1  0  0  0  0  0999 V2000
   -1.0995   -1.5877   -0.1478 O   0  0  0  0  0  1  0  0  0  0  0  0
    0.6145    0.8532   -0.1129 N   0  0  0  0  0  2  0  0  0  0  0  0
    2.9119   -1.0963    0.0697 N   0  0  0  0  0  2  0  0  0  0  0  0
   -3.6357   -2.5496   -0.4110 C   0  0  0  0  0  0  0  0  0  0  0  0
   -4.9191   -3.1096   -0.3911 C   0  0  0  0  0  0  0  0  0  0  0  0
   -6.0008   -2.3812    0.1301 C   0  0  0  0  0  0  0  0  0  0  0  0
   -5.7849   -1.0881    0.6338 C   0  0  0  0  0  0  0  0  0  0  0  0
   -4.5024   -0.5242    0.6071 C   0  0  0  0  0  0  0  0  0  0  0  0
   -3.4081   -1.2437    0.0778 C   0  0  0  0  0  0  0  0  0  0  0  0
   -2.0130   -0.6924    0.0295 C   0  0  2  0  0  3  0  0  0  0  0  0
   -1.8096    0.6939    0.1423 C   0  0  0  0  0  0  0  0  0  0  0  0
   -0.5841    1.4100    0.0286 C   0  0  0  0  0  0  0  0  0  0  0  0
   -0.7254    2.9070    0.0722 C   0  0  0  0  0  0  0  0  0  0  0  0
   -1.4872    3.5820   -0.9038 C   0  0  0  0  0  0  0  0  0  0  0  0
   -1.6341    4.9768   -0.8549 C   0  0  0  0  0  0  0  0  0  0  0  0
   -1.0341    5.7132    0.1785 C   0  0  0  0  0  0  0  0  0  0  0  0
   -0.2843    5.0482    1.1626 C   0  0  0  0  0  0  0  0  0  0  0  0
   -0.1273    3.6561    1.1074 C   0  0  0  0  0  0  0  0  0  0  0  0
    1.7656    1.6866   -0.4217 C   0  0  0  0  0  0  0  0  0  0  0  0
    2.7877    0.9385   -1.2980 C   0  0  0  0  0  0  0  0  0  0  0  0
    3.5858   -0.0702   -0.5239 C   0  0  1  0  0  3  0  0  0  0  0  0
    4.9761    0.0645   -0.3617 C   0  0  0  0  0  0  0  0  0  0  0  0
    5.6891   -0.8461    0.4259 C   0  0  0  0  0  0  0  0  0  0  0  0
    4.9795   -1.8820    1.0478 C   0  0  0  0  0  0  0  0  0  0  0  0
    3.6017   -1.9746    0.8422 C   0  0  0  0  0  0  0  0  0  0  0  0
   -2.7771   -3.1102   -0.8060 H   0  0  0  0  0  0  0  0  0  0  0  0
   -5.0775   -4.1258   -0.7842 H   0  0  0  0  0  0  0  0  0  0  0  0
   -7.0094   -2.8219    0.1502 H   0  0  0  0  0  0  0  0  0  0  0  0
   -6.6229   -0.5143    1.0586 H   0  0  0  0  0  0  0  0  0  0  0  0
   -4.3496    0.4799    1.0283 H   0  0  0  0  0  0  0  0  0  0  0  0
   -2.6998    1.3206    0.2675 H   0  0  0  0  0  0  0  0  0  0  0  0
   -1.9607    2.9996   -1.7089 H   0  0  0  0  0  0  0  0  0  0  0  0
   -2.2243    5.4915   -1.6285 H   0  0  0  0  0  0  0  0  0  0  0  0
   -1.1542    6.8065    0.2203 H   0  0  0  0  0  0  0  0  0  0  0  0
    0.1778    5.6185    1.9830 H   0  0  0  0  0  0  0  0  0  0  0  0
    0.4520    3.1340    1.8842 H   0  0  0  0  0  0  0  0  0  0  0  0
    2.2807    2.0307    0.5059 H   0  0  0  0  0  0  0  0  0  0  0  0
    1.4574    2.6075   -0.9611 H   0  0  0  0  0  0  0  0  0  0  0  0
    2.2401    0.4344   -2.1234 H   0  0  0  0  0  0  0  0  0  0  0  0
    3.4838    1.6733   -1.7479 H   0  0  0  0  0  0  0  0  0  0  0  0
    5.4879    0.8981   -0.8638 H   0  0  0  0  0  0  0  0  0  0  0  0
    6.7770   -0.7457    0.5554 H   0  0  0  0  0  0  0  0  0  0  0  0
    5.4799   -2.6232    1.6867 H   0  0  0  0  0  0  0  0  0  0  0  0
    3.0103   -2.7788    1.2976 H   0  0  0  0  0  0  0  0  0  0  0  0
  2 12  1  0  0  0  0
  3 25  1  0  0  0  0
  4  5  2  0  0  0  0
  4  9  1  0  0  0  0
  5  6  1  0  0  0  0
  6 28  1  0  0  0  0
  6  7  2  0  0  0  0
  7 29  1  0  0  0  0
  8  7  1  0  0  0  0
  8 30  1  0  0  0  0
  9  8  2  0  0  0  0
 10  1  1  6  0  0  0
 10  9  1  0  0  0  0
 10 11  1  0  0  0  0
 11 31  1  0  0  0  0
 12 13  1  0  0  0  0
 12 11  2  0  0  0  0
 13 18  1  0  0  0  0
 14 15  1  0  0  0  0
 14 13  2  0  0  0  0
 15 16  2  0  0  0  0
 16 34  1  0  0  0  0
 16 17  1  0  0  0  0
 17 35  1  0  0  0  0
 18 17  2  0  0  0  0
 18 36  1  0  0  0  0
 19  2  1  0  0  0  0
 19 37  1  0  0  0  0
 20 19  1  0  0  0  0
 21 20  1  1  0  0  0
 21 22  1  0  0  0  0
 21  3  1  0  0  0  0
 22 23  2  0  0  0  0
 23 42  1  0  0  0  0
 23 24  1  0  0  0  0
 24 43  1  0  0  0  0
 25 24  2  0  0  0  0
 25 44  1  0  0  0  0
 26  4  1  0  0  0  0
 27  5  1  0  0  0  0
 32 14  1  0  0  0  0
 33 15  1  0  0  0  0
 38 19  1  0  0  0  0
 39 20  1  0  0  0  0
 40 20  1  0  0  0  0
 41 22  1  0  0  0  0
M  END
