1,2,56
q = -2.0, confidence = 0.884

 72 74  0  0  0  0  0  0  0  0999 V2000
   -0.8296   -1.4088   -0.3964 O   0  5  0  0  0  0  0  0  0  0  0  0
    2.0466    0.3865    0.0621 N   0  0  0  0  0  2  0  0  0  0  0  0
   -1.9789   -0.7425   -0.2105 C   0  0  0  0  0  0  0  0  0  0  0  0
    2.2898    1.7422    0.0495 C   0  0  0  0  0  0  0  0  0  0  0  0
   -3.2310   -1.3713    0.0007 C   0  0  0  0  0  0  0  0  0  0  0  0
   -4.3308   -0.5131    0.1888 C   0  0  0  0  0  0  0  0  0  0  0  0
   -5.3106   -0.9729    0.3567 H   0  0  0  0  0  0  0  0  0  0  0  0
   -3.3470   -2.9032    0.0253 C   0  0  0  0  0  0  0  0  0  0  0  0
    1.2579    2.6901   -0.3111 C   0  0  0  0  0  0  0  0  0  0  0  0
    2.9273   -0.4843    0.7904 C   0  0  0  0  0  0  0  0  0  0  0  0
    1.5751    4.0777   -0.3684 C   0  0  0  0  0  0  0  0  0  0  0  0
    0.7726    4.7787   -0.6471 H   0  0  0  0  0  0  0  0  0  0  0  0
   -4.2476    0.9006    0.1780 C   0  0  0  0  0  0  0  0  0  0  0  0
    4.9644   -1.7809    0.9738 C   0  0  0  0  0  0  0  0  0  0  0  0
    5.9131   -2.1381    0.5446 H   0  0  0  0  0  0  0  0  0  0  0  0
    4.1487   -0.9254    0.2117 C   0  0  0  0  0  0  0  0  0  0  0  0
    1.1913   -0.4786    2.6750 C   0  0  0  0  0  0  0  0  0  0  0  0
    0.4045   -0.4834    1.8927 H   0  0  0  0  0  0  0  0  0  0  0  0
    0.8813   -1.2313    3.4290 H   0  0  0  0  0  0  0  0  0  0  0  0
    3.8294    3.6321    0.3626 C   0  0  0  0  0  0  0  0  0  0  0  0
    4.8301    3.9934    0.6454 H   0  0  0  0  0  0  0  0  0  0  0  0
    2.5088   -0.9223    2.0759 C   0  0  0  0  0  0  0  0  0  0  0  0
   -2.9893    1.4891   -0.0284 C   0  0  0  0  0  0  0  0  0  0  0  0
   -2.8839    2.5839   -0.0336 H   0  0  0  0  0  0  0  0  0  0  0  0
    2.8430    4.5520   -0.0644 C   0  0  0  0  0  0  0  0  0  0  0  0
    3.0695    5.6260   -0.1260 H   0  0  0  0  0  0  0  0  0  0  0  0
    3.3600   -1.7822    2.7935 C   0  0  0  0  0  0  0  0  0  0  0  0
    3.0455   -2.1321    3.7893 H   0  0  0  0  0  0  0  0  0  0  0  0
    5.9609    0.0290   -1.3426 C   0  0  0  0  0  0  0  0  0  0  0  0
    6.0793    0.9650   -0.7596 H   0  0  0  0  0  0  0  0  0  0  0  0
    6.1793    0.2651   -2.4032 H   0  0  0  0  0  0  0  0  0  0  0  0
    6.7389   -0.6809   -0.9960 H   0  0  0  0  0  0  0  0  0  0  0  0
    4.5473   -0.5465   -1.2002 C   0  0  0  0  0  0  0  0  0  0  0  0
    4.4502   -1.4603   -1.8268 H   0  0  0  0  0  0  0  0  0  0  0  0
    3.8096    0.1652   -1.6198 H   0  0  0  0  0  0  0  0  0  0  0  0
    4.5807   -2.2050    2.2528 C   0  0  0  0  0  0  0  0  0  0  0  0
    5.2308   -2.8844    2.8246 H   0  0  0  0  0  0  0  0  0  0  0  0
   -2.4559   -3.4636    1.1596 C   0  0  0  0  0  0  0  0  0  0  0  0
   -1.3932   -3.1994    1.0021 H   0  0  0  0  0  0  0  0  0  0  0  0
   -2.5352   -4.5699    1.1929 H   0  0  0  0  0  0  0  0  0  0  0  0
   -2.7759   -3.0670    2.1449 H   0  0  0  0  0  0  0  0  0  0  0  0
   -2.8789   -3.4755   -1.3341 C   0  0  0  0  0  0  0  0  0  0  0  0
   -3.4991   -3.0790   -2.1636 H   0  0  0  0  0  0  0  0  0  0  0  0
   -2.9751   -4.5810   -1.3323 H   0  0  0  0  0  0  0  0  0  0  0  0
   -1.8206   -3.2245   -1.5358 H   0  0  0  0  0  0  0  0  0  0  0  0
   -4.7945   -3.3612    0.2728 C   0  0  0  0  0  0  0  0  0  0  0  0
   -5.1831   -3.0048    1.2485 H   0  0  0  0  0  0  0  0  0  0  0  0
   -4.8340   -4.4688    0.2838 H   0  0  0  0  0  0  0  0  0  0  0  0
   -5.4829   -3.0120   -0.5236 H   0  0  0  0  0  0  0  0  0  0  0  0
    3.5572    2.2703    0.4360 C   0  0  0  0  0  0  0  0  0  0  0  0
    4.3297    1.5731    0.7847 H   0  0  0  0  0  0  0  0  0  0  0  0
    1.2446    0.9089    3.3316 C   0  0  0  0  0  0  0  0  0  0  0  0
    2.0006    0.9367    4.1426 H   0  0  0  0  0  0  0  0  0  0  0  0
    0.2615    1.1757    3.7697 H   0  0  0  0  0  0  0  0  0  0  0  0
    1.5135    1.6959    2.5999 H   0  0  0  0  0  0  0  0  0  0  0  0
   -0.5355    1.0692   -0.4304 N   0  0  0  0  0  2  0  0  0  0  0  0
   -5.4816    1.7998    0.3858 C   0  0  0  0  0  0  0  0  0  0  0  0
   -6.7687    0.9835    0.5976 C   0  0  0  0  0  0  0  0  0  0  0  0
   -6.7052    0.3367    1.4957 H   0  0  0  0  0  0  0  0  0  0  0  0
   -6.9989    0.3408   -0.2758 H   0  0  0  0  0  0  0  0  0  0  0  0
   -7.6273    1.6697    0.7415 H   0  0  0  0  0  0  0  0  0  0  0  0
   -5.2612    2.6885    1.6312 C   0  0  0  0  0  0  0  0  0  0  0  0
   -5.1182    2.0686    2.5392 H   0  0  0  0  0  0  0  0  0  0  0  0
   -6.1373    3.3489    1.7979 H   0  0  0  0  0  0  0  0  0  0  0  0
   -4.3690    3.3369    1.5225 H   0  0  0  0  0  0  0  0  0  0  0  0
   -5.6748    2.6947   -0.8596 C   0  0  0  0  0  0  0  0  0  0  0  0
   -6.5578    3.3546   -0.7313 H   0  0  0  0  0  0  0  0  0  0  0  0
   -5.8323    2.0794   -1.7682 H   0  0  0  0  0  0  0  0  0  0  0  0
   -4.7948    3.3433   -1.0416 H   0  0  0  0  0  0  0  0  0  0  0  0
   -1.8631    0.6743   -0.2322 C   0  0  0  0  0  0  0  0  0  0  0  0
   -0.1188    2.3129   -0.4014 C   0  0  0  0  0  3  0  0  0  0  0  0
   -0.8593    3.1367   -0.3633 H   0  0  0  0  0  0  0  0  0  0  0  0
  1  3  1  0  0  0  0
  2 10  1  0  0  0  0
  3  5  1  0  0  0  0
  4  2  1  0  0  0  0
  4 50  1  0  0  0  0
  5  8  1  0  0  0  0
  5  6  2  0  0  0  0
  6  7  1  0  0  0  0
  8 46  1  0  0  0  0
  8 38  1  0  0  0  0
  9  4  2  0  0  0  0
 10 22  1  0  0  0  0
 11  9  1  0  0  0  0
 11 25  2  0  0  0  0
 12 11  1  0  0  0  0
 13  6  1  0  0  0  0
 13 57  1  0  0  0  0
 14 36  2  0  0  0  0
 15 14  1  0  0  0  0
 16 10  2  0  0  0  0
 16 14  1  0  0  0  0
 17 52  1  0  0  0  0
 17 19  1  0  0  0  0
 18 17  1  0  0  0  0
 20 50  2  0  0  0  0
 20 21  1  0  0  0  0
 22 17  1  0  0  0  0
 22 27  2  0  0  0  0
 23 13  2  0  0  0  0
 24 23  1  0  0  0  0
 25 20  1  0  0  0  0
 26 25  1  0  0  0  0
 27 28  1  0  0  0  0
 29 33  1  0  0  0  0
 29 32  1  0  0  0  0
 29 30  1  0  0  0  0
 31 29  1  0  0  0  0
 33 16  1  0  0  0  0
 34 33  1  0  0  0  0
 35 33  1  0  0  0  0
 36 27  1  0  0  0  0
 36 37  1  0  0  0  0
 38 40  1  0  0  0  0
 38 41  1  0  0  0  0
 39 38  1  0  0  0  0
 42 44  1  0  0  0  0
 42  8  1  0  0  0  0
 43 42  1  0  0  0  0
 45 42  1  0  0  0  0
 46 48  1  0  0  0  0
 46 47  1  0  0  0  0
 49 46  1  0  0  0  0
 50 51  1  0  0  0  0
 52 54  1  0  0  0  0
 52 53  1  0  0  0  0
 55 52  1  0  0  0  0
 56 71  1  0  0  0  0
 56 70  1  0  0  0  0
 57 58  1  0  0  0  0
 57 62  1  0  0  0  0
 58 61  1  0  0  0  0
 58 59  1  0  0  0  0
 60 58  1  0  0  0  0
 62 64  1  0  0  0  0
 62 63  1  0  0  0  0
 65 62  1  0  0  0  0
 66 67  1  0  0  0  0
 66 57  1  0  0  0  0
 68 66  1  0  0  0  0
 69 66  1  0  0  0  0
 70  3  2  0  0  0  0
 70 23  1  0  0  0  0
 71 72  1  0  0  0  0
 71  9  1  0  0  0  0
M  CHG  1   1  -1
M  END
