1,2,5
q = -1.0, confidence = 0.024

 33 34  0  0  1  0  0  0  0  0999 V2000
   -0.1664   -0.6120    0.1984 N   0  0  0  0  0  2  0  0  0  0  0  0
   -2.1544    1.1032    0.6039 N   0  0  0  0  0  0  0  0  0  0  0  0
   -2.3330    1.8209    1.3161 H   0  0  0  0  0  0  0  0  0  0  0  0
   -2.7243    1.3346   -0.2201 H   0  0  0  0  0  0  0  0  0  0  0  0
    1.7274    1.1846   -0.5542 O   0  5  0  0  0  0  0  0  0  0  0  0
    2.2420   -1.0378    0.2086 C   0  0  0  0  0  0  0  0  0  0  0  0
    2.6110    0.2738   -0.2698 C   0  0  0  0  0  0  0  0  0  0  0  0
    3.9988    0.5421   -0.4645 C   0  0  0  0  0  0  0  0  0  0  0  0
    4.2723    1.5393   -0.8374 H   0  0  0  0  0  0  0  0  0  0  0  0
    4.9593   -0.4220   -0.1772 C   0  0  0  0  0  0  0  0  0  0  0  0
    6.0237   -0.1803   -0.3248 H   0  0  0  0  0  0  0  0  0  0  0  0
    4.5966   -1.7074    0.2988 C   0  0  0  0  0  0  0  0  0  0  0  0
    5.3698   -2.4577    0.5171 H   0  0  0  0  0  0  0  0  0  0  0  0
    3.2517   -2.0042    0.4764 C   0  0  0  0  0  0  0  0  0  0  0  0
    2.9433   -3.0010    0.8322 H   0  0  0  0  0  0  0  0  0  0  0  0
    0.8645   -1.4066    0.3357 C   0  0  0  0  0  3  0  0  0  0  0  0
    0.6663   -2.4800    0.5524 H   0  0  0  0  0  0  0  0  0  0  0  0
   -1.5058   -1.1912    0.2307 C   0  0  1  0  0  0  0  0  0  0  0  0
   -1.4814   -2.2029    0.6992 H   0  0  0  0  0  0  0  0  0  0  0  0
   -2.3842   -0.2662    1.0979 C   0  0  2  0  0  0  0  0  0  0  0  0
   -1.9866   -0.2950    2.1332 H   0  0  0  0  0  0  0  0  0  0  0  0
   -3.8586   -0.6984    1.0852 C   0  0  0  0  0  0  0  0  0  0  0  0
   -3.9366   -1.6774    1.6063 H   0  0  0  0  0  0  0  0  0  0  0  0
   -4.4605    0.0204    1.6801 H   0  0  0  0  0  0  0  0  0  0  0  0
   -4.4082   -0.8368   -0.3411 C   0  0  0  0  0  0  0  0  0  0  0  0
   -4.4513    0.1622   -0.8319 H   0  0  0  0  0  0  0  0  0  0  0  0
   -5.4567   -1.1963   -0.3082 H   0  0  0  0  0  0  0  0  0  0  0  0
   -3.5366   -1.7779   -1.1827 C   0  0  0  0  0  0  0  0  0  0  0  0
   -3.6011   -2.8065   -0.7620 H   0  0  0  0  0  0  0  0  0  0  0  0
   -3.9227   -1.8414   -2.2205 H   0  0  0  0  0  0  0  0  0  0  0  0
   -2.0716   -1.3251   -1.1972 C   0  0  0  0  0  0  0  0  0  0  0  0
   -1.4370   -2.0357   -1.7654 H   0  0  0  0  0  0  0  0  0  0  0  0
   -1.9660   -0.3445   -1.7132 H   0  0  0  0  0  0  0  0  0  0  0  0
  1 18  1  0  0  0  0
  1 16  1  0  0  0  0
  2 20  1  0  0  0  0
  2  3  1  0  0  0  0
  4  2  1  0  0  0  0
  5  7  1  0  0  0  0
  6 16  1  0  0  0  0
  6 14  1  0  0  0  0
  7  6  2  0  0  0  0
  8  7  1  0  0  0  0
  8 10  2  0  0  0  0
  9  8  1  0  0  0  0
 10 12  1  0  0  0  0
 11 10  1  0  0  0  0
 12 14  2  0  0  0  0
 12 13  1  0  0  0  0
 14 15  1  0  0  0  0
 16 17  1  0  0  0  0
 18 19  1  1  0  0  0
 18 20  1  0  0  0  0
 20 21  1  1  0  0  0
 22 20  1  0  0  0  0
 22 23  1  0  0  0  0
 22 24  1  0  0  0  0
 25 27  1  0  0  0  0
 25 22  1  0  0  0  0
 26 25  1  0  0  0  0
 28 29  1  0  0  0  0
 28 25  1  0  0  0  0
 30 28  1  0  0  0  0
 31 28  1  0  0  0  0
 31 18  1  0  0  0  0
 32 31  1  0  0  0  0
 33 31  1  0  0  0  0
M  CHG  1   5  -1
M  END
