2,3,5
q = -2.0, confidence = 0.886

 50 50  0  0  0  0  0  0  0  0999 V2000
   -0.2998    3.5581   -0.7407 S   0  0  0  0  0  0  0  0  0  0  0  0
   -3.6127   -1.4523    0.7101 O   0  5  0  0  0  0  0  0  0  0  0  0
   -2.9176    0.7583   -0.7864 N   0  0  0  0  0  2  0  0  0  0  0  0
   -2.2987    1.9251   -1.1179 N   0  0  0  0  0  0  0  0  0  0  0  0
   -0.7775    1.1234    0.4647 N   0  0  0  0  0  2  0  0  0  0  0  0
   -4.6190   -1.6159   -0.1518 C   0  0  0  0  0  0  0  0  0  0  0  0
   -5.4847   -2.7171    0.0169 C   0  0  0  0  0  0  0  0  0  0  0  0
   -6.5740   -2.9008   -0.8416 C   0  0  0  0  0  0  0  0  0  0  0  0
   -6.8256   -1.9887   -1.8857 C   0  0  0  0  0  0  0  0  0  0  0  0
   -5.9760   -0.8961   -2.0595 C   0  0  0  0  0  0  0  0  0  0  0  0
   -4.8576   -0.6836   -1.2111 C   0  0  0  0  0  0  0  0  0  0  0  0
   -4.0283    0.4748   -1.4308 C   0  0  0  0  0  3  0  0  0  0  0  0
   -1.1787    2.0560   -0.4240 C   0  0  0  0  0  0  0  0  0  0  0  0
    1.3024    3.2490    0.0883 C   0  0  0  0  0  0  0  0  0  0  0  0
    2.1959    2.2214   -0.6079 C   0  0  0  0  0  0  0  0  0  0  0  0
    3.5271    2.0071    0.1196 C   0  0  0  0  0  0  0  0  0  0  0  0
    4.4298    0.9764   -0.5637 C   0  0  0  0  0  0  0  0  0  0  0  0
    5.7576    0.7425    0.1608 C   0  0  0  0  0  0  0  0  0  0  0  0
    6.6600   -0.2888   -0.5214 C   0  0  0  0  0  0  0  0  0  0  0  0
    7.9873   -0.5268    0.2033 C   0  0  0  0  0  0  0  0  0  0  0  0
    8.8903   -1.5578   -0.4783 C   0  0  0  0  0  0  0  0  0  0  0  0
   10.2182   -1.7975    0.2465 C   0  0  0  0  0  0  0  0  0  0  0  0
   11.1126   -2.8287   -0.4424 C   0  0  0  0  0  0  0  0  0  0  0  0
    0.0272    1.3362    1.0571 H   0  0  0  0  0  0  0  0  0  0  0  0
   -5.2738   -3.4158    0.8389 H   0  0  0  0  0  0  0  0  0  0  0  0
   -7.2374   -3.7667   -0.6949 H   0  0  0  0  0  0  0  0  0  0  0  0
   -7.6824   -2.1361   -2.5586 H   0  0  0  0  0  0  0  0  0  0  0  0
   -6.1591   -0.1751   -2.8717 H   0  0  0  0  0  0  0  0  0  0  0  0
   -4.3355    1.1977   -2.2099 H   0  0  0  0  0  0  0  0  0  0  0  0
    1.1227    2.9957    1.1567 H   0  0  0  0  0  0  0  0  0  0  0  0
    1.7795    4.2511    0.0985 H   0  0  0  0  0  0  0  0  0  0  0  0
    2.3774    2.5552   -1.6517 H   0  0  0  0  0  0  0  0  0  0  0  0
    1.6558    1.2536   -0.6879 H   0  0  0  0  0  0  0  0  0  0  0  0
    3.3285    1.6831    1.1667 H   0  0  0  0  0  0  0  0  0  0  0  0
    4.0680    2.9770    0.2035 H   0  0  0  0  0  0  0  0  0  0  0  0
    4.6313    1.3010   -1.6094 H   0  0  0  0  0  0  0  0  0  0  0  0
    3.8815    0.0116   -0.6513 H   0  0  0  0  0  0  0  0  0  0  0  0
    5.5537    0.4181    1.2065 H   0  0  0  0  0  0  0  0  0  0  0  0
    6.3046    1.7087    0.2503 H   0  0  0  0  0  0  0  0  0  0  0  0
    6.8643    0.0357   -1.5670 H   0  0  0  0  0  0  0  0  0  0  0  0
    6.1116   -1.2537   -0.6119 H   0  0  0  0  0  0  0  0  0  0  0  0
    7.7819   -0.8515    1.2487 H   0  0  0  0  0  0  0  0  0  0  0  0
    8.5350    0.4388    0.2946 H   0  0  0  0  0  0  0  0  0  0  0  0
    9.0958   -1.2333   -1.5239 H   0  0  0  0  0  0  0  0  0  0  0  0
    8.3423   -2.5232   -0.5701 H   0  0  0  0  0  0  0  0  0  0  0  0
   10.0091   -2.1206    1.2908 H   0  0  0  0  0  0  0  0  0  0  0  0
   10.7623   -0.8308    0.3380 H   0  0  0  0  0  0  0  0  0  0  0  0
   12.0647   -2.9806    0.1052 H   0  0  0  0  0  0  0  0  0  0  0  0
   10.6081   -3.8150   -0.5154 H   0  0  0  0  0  0  0  0  0  0  0  0
   11.3680   -2.5143   -1.4761 H   0  0  0  0  0  0  0  0  0  0  0  0
  1 13  1  0  0  0  0
  1 14  1  0  0  0  0
  4  3  1  0  0  0  0
  4 13  2  0  0  0  0
  5 24  1  0  0  0  0
  6  7  1  0  0  0  0
  6  2  1  0  0  0  0
  7 25  1  0  0  0  0
  8 26  1  0  0  0  0
  8  7  2  0  0  0  0
  9  8  1  0  0  0  0
 10  9  2  0  0  0  0
 10 11  1  0  0  0  0
 11  6  2  0  0  0  0
 12 11  1  0  0  0  0
 12  3  1  0  0  0  0
 13  5  1  0  0  0  0
 14 31  1  0  0  0  0
 14 30  1  0  0  0  0
 15 14  1  0  0  0  0
 15 16  1  0  0  0  0
 16 35  1  0  0  0  0
 16 34  1  0  0  0  0
 17 16  1  0  0  0  0
 17 18  1  0  0  0  0
 18 39  1  0  0  0  0
 18 38  1  0  0  0  0
 19 18  1  0  0  0  0
 19 20  1  0  0  0  0
 20 43  1  0  0  0  0
 20 42  1  0  0  0  0
 21 20  1  0  0  0  0
 21 22  1  0  0  0  0
 22 47  1  0  0  0  0
 22 46  1  0  0  0  0
 23 48  1  0  0  0  0
 23 22  1  0  0  0  0
 27  9  1  0  0  0  0
 28 10  1  0  0  0  0
 29 12  1  0  0  0  0
 32 15  1  0  0  0  0
 33 15  1  0  0  0  0
 36 17  1  0  0  0  0
 37 17  1  0  0  0  0
 40 19  1  0  0  0  0
 41 19  1  0  0  0  0
 44 21  1  0  0  0  0
 45 21  1  0  0  0  0
 49 23  1  0  0  0  0
 50 23  1  0  0  0  0
M  CHG  1   2  -1
M  END
