2,3,8
q = -1.0, confidence = 0.01

 40 42  0  0  1  0  0  0  0  0999 V2000
    6.7666    1.4791   -0.0522 Cl  0  0  0  0  0  0  0  0  0  0  0  0
    2.9819    0.2466   -0.0141 N   0  0  0  0  0  2  0  0  0  0  0  0
    0.9018    1.1127   -0.0537 N   0  0  0  0  0  2  0  0  0  0  0  0
   -1.4243    1.6336   -0.0461 N   0  0  0  0  0  0  0  0  0  0  0  0
   -3.2557    0.1925   -0.0838 N   0  0  0  0  0  0  0  0  0  0  0  0
   -3.7789    1.0721   -0.0640 H   0  0  0  0  0  0  0  0  0  0  0  0
    0.1249    3.3140   -0.1008 O   0  0  0  0  0  0  0  0  0  0  0  0
   -1.1490   -0.6823   -0.0993 O   0  0  0  0  0  1  0  0  0  0  0  0
    2.2498    1.3995   -0.0601 C   0  0  1  0  0  3  0  0  0  0  0  0
    4.3197    0.2746   -0.0120 C   0  0  0  0  0  0  0  0  0  0  0  0
    4.8495   -0.6909    0.0277 H   0  0  0  0  0  0  0  0  0  0  0  0
    5.0258    1.4835   -0.0560 C   0  0  0  0  0  0  0  0  0  0  0  0
    4.3001    2.6902   -0.1032 C   0  0  0  0  0  0  0  0  0  0  0  0
    4.8403    3.6478   -0.1382 H   0  0  0  0  0  0  0  0  0  0  0  0
    2.9059    2.6600   -0.1050 C   0  0  0  0  0  0  0  0  0  0  0  0
    2.2983    3.5715   -0.1393 H   0  0  0  0  0  0  0  0  0  0  0  0
   -0.0273    2.0917   -0.0725 C   0  0  0  0  0  0  0  0  0  0  0  0
   -2.3812    2.7138   -0.0101 C   0  0  0  0  0  0  0  0  0  0  0  0
   -2.8715    3.1683    1.2266 C   0  0  0  0  0  0  0  0  0  0  0  0
   -2.4899    2.7152    2.1533 H   0  0  0  0  0  0  0  0  0  0  0  0
   -3.8303    4.1913    1.2603 C   0  0  0  0  0  0  0  0  0  0  0  0
   -4.2121    4.5497    2.2280 H   0  0  0  0  0  0  0  0  0  0  0  0
   -4.2954    4.7600    0.0636 C   0  0  0  0  0  0  0  0  0  0  0  0
   -5.0462    5.5638    0.0923 H   0  0  0  0  0  0  0  0  0  0  0  0
   -3.7996    4.3064   -1.1699 C   0  0  0  0  0  0  0  0  0  0  0  0
   -4.1575    4.7559   -2.1082 H   0  0  0  0  0  0  0  0  0  0  0  0
   -2.8422    3.2830   -1.2100 C   0  0  0  0  0  0  0  0  0  0  0  0
   -2.4372    2.9193   -2.1654 H   0  0  0  0  0  0  0  0  0  0  0  0
   -1.8888    0.3224   -0.0763 C   0  0  1  0  0  3  0  0  0  0  0  0
   -4.0455   -0.9747   -0.0878 C   0  0  0  0  0  0  0  0  0  0  0  0
   -5.4454   -0.7841   -0.0312 C   0  0  0  0  0  0  0  0  0  0  0  0
   -5.8507    0.2398    0.0149 H   0  0  0  0  0  0  0  0  0  0  0  0
   -6.3141   -1.8804   -0.0318 C   0  0  0  0  0  0  0  0  0  0  0  0
   -7.4001   -1.7084    0.0129 H   0  0  0  0  0  0  0  0  0  0  0  0
   -5.8047   -3.1877   -0.0876 C   0  0  0  0  0  0  0  0  0  0  0  0
   -6.4860   -4.0511   -0.0873 H   0  0  0  0  0  0  0  0  0  0  0  0
   -4.4161   -3.3766   -0.1445 C   0  0  0  0  0  0  0  0  0  0  0  0
   -4.0014   -4.3952   -0.1902 H   0  0  0  0  0  0  0  0  0  0  0  0
   -3.5307   -2.2888   -0.1464 C   0  0  0  0  0  0  0  0  0  0  0  0
   -2.4491   -2.4482   -0.1947 H   0  0  0  0  0  0  0  0  0  0  0  0
  2 10  1  0  0  0  0
  4 18  1  0  0  0  0
  5 29  1  0  0  0  0
  5  6  1  0  0  0  0
  7 17  2  0  0  0  0
  9  3  1  1  0  0  0
  9  2  1  0  0  0  0
 10 11  1  0  0  0  0
 12  1  1  0  0  0  0
 12 10  2  0  0  0  0
 13 12  1  0  0  0  0
 14 13  1  0  0  0  0
 15 13  2  0  0  0  0
 15  9  1  0  0  0  0
 16 15  1  0  0  0  0
 17  3  1  0  0  0  0
 17  4  1  0  0  0  0
 18 19  1  0  0  0  0
 19 21  2  0  0  0  0
 19 20  1  0  0  0  0
 21 22  1  0  0  0  0
 23 24  1  0  0  0  0
 23 21  1  0  0  0  0
 25 23  2  0  0  0  0
 26 25  1  0  0  0  0
 27 25  1  0  0  0  0
 27 18  2  0  0  0  0
 28 27  1  0  0  0  0
 29  8  1  6  0  0  0
 29  4  1  0  0  0  0
 30  5  1  0  0  0  0
 30 31  1  0  0  0  0
 31 32  1  0  0  0  0
 33 31  2  0  0  0  0
 33 34  1  0  0  0  0
 35 36  1  0  0  0  0
 35 33  1  0  0  0  0
 37 35  2  0  0  0  0
 38 37  1  0  0  0  0
 39 37  1  0  0  0  0
 39 30  2  0  0  0  0
 40 39  1  0  0  0  0
M  END
