1,2,3
q = -1.0, confidence = 0.088

 67 69  0  0  1  0  0  0  0  0999 V2000
   -1.1225    0.9430   -0.0562 O   0  0  0  0  0  1  0  0  0  0  0  0
    0.0150   -1.6743    0.3141 N   0  0  0  0  0  2  0  0  0  0  0  0
    2.6841   -0.6391    0.0139 N   0  0  0  0  0  0  0  0  0  0  0  0
   -2.2587    0.3072   -0.0659 C   0  0  2  0  0  3  0  0  0  0  0  0
   -3.4687    1.0791   -0.2471 C   0  0  0  0  0  0  0  0  0  0  0  0
   -4.6899    0.4025   -0.2470 C   0  0  0  0  0  0  0  0  0  0  0  0
   -5.5979    0.9991   -0.3890 H   0  0  0  0  0  0  0  0  0  0  0  0
   -4.8374   -1.0013   -0.0731 C   0  0  0  0  0  0  0  0  0  0  0  0
   -3.6700   -1.7320    0.1088 C   0  0  0  0  0  0  0  0  0  0  0  0
   -3.7148   -2.8236    0.2560 H   0  0  0  0  0  0  0  0  0  0  0  0
   -2.3830   -1.1223    0.1113 C   0  0  0  0  0  0  0  0  0  0  0  0
   -1.2598   -1.9817    0.3340 C   0  0  0  0  0  0  0  0  0  0  0  0
   -1.5056   -3.0397    0.5614 H   0  0  0  0  0  0  0  0  0  0  0  0
    1.0162   -2.6765    0.6691 C   0  0  0  0  0  0  0  0  0  0  0  0
    0.4929   -3.6067    0.9798 H   0  0  0  0  0  0  0  0  0  0  0  0
    1.8725   -2.1577    1.8427 C   0  0  0  0  0  0  0  0  0  0  0  0
    1.2014   -1.6782    2.5815 H   0  0  0  0  0  0  0  0  0  0  0  0
    2.3517   -3.0234    2.3431 H   0  0  0  0  0  0  0  0  0  0  0  0
    2.9631   -1.1691    1.3797 C   0  0  0  0  0  0  0  0  0  0  0  0
    3.0149   -0.2884    2.0474 H   0  0  0  0  0  0  0  0  0  0  0  0
    3.9585   -1.6660    1.3637 H   0  0  0  0  0  0  0  0  0  0  0  0
    2.7196   -1.7472   -0.9877 C   0  0  0  0  0  0  0  0  0  0  0  0
    3.7792   -2.0333   -1.1583 H   0  0  0  0  0  0  0  0  0  0  0  0
    2.3302   -1.3310   -1.9366 H   0  0  0  0  0  0  0  0  0  0  0  0
    1.9201   -2.9840   -0.5316 C   0  0  0  0  0  0  0  0  0  0  0  0
    1.3119   -3.3746   -1.3706 H   0  0  0  0  0  0  0  0  0  0  0  0
    2.6135   -3.7952   -0.2297 H   0  0  0  0  0  0  0  0  0  0  0  0
    3.6680    0.4431   -0.3565 C   0  0  0  0  0  0  0  0  0  0  0  0
    3.5629    1.2048    0.4364 H   0  0  0  0  0  0  0  0  0  0  0  0
    3.3068    0.8821   -1.3049 H   0  0  0  0  0  0  0  0  0  0  0  0
    5.1124    0.0081   -0.4795 C   0  0  0  0  0  0  0  0  0  0  0  0
    5.6556   -0.3748   -1.7241 C   0  0  0  0  0  0  0  0  0  0  0  0
    5.0178   -0.3466   -2.6220 H   0  0  0  0  0  0  0  0  0  0  0  0
    6.9967   -0.7714   -1.8358 C   0  0  0  0  0  0  0  0  0  0  0  0
    7.4025   -1.0624   -2.8166 H   0  0  0  0  0  0  0  0  0  0  0  0
    7.8214   -0.7862   -0.6999 C   0  0  0  0  0  0  0  0  0  0  0  0
    8.8745   -1.0942   -0.7853 H   0  0  0  0  0  0  0  0  0  0  0  0
    7.3010   -0.3890    0.5421 C   0  0  0  0  0  0  0  0  0  0  0  0
    7.9475   -0.3779    1.4329 H   0  0  0  0  0  0  0  0  0  0  0  0
    5.9602    0.0089    0.6487 C   0  0  0  0  0  0  0  0  0  0  0  0
    5.5638    0.3452    1.6193 H   0  0  0  0  0  0  0  0  0  0  0  0
   -3.3882    2.6070   -0.4338 C   0  0  0  0  0  0  0  0  0  0  0  0
   -2.7398    3.2550    0.8140 C   0  0  0  0  0  0  0  0  0  0  0  0
   -1.7118    2.8786    0.9664 H   0  0  0  0  0  0  0  0  0  0  0  0
   -3.3357    3.0397    1.7245 H   0  0  0  0  0  0  0  0  0  0  0  0
   -2.6959    4.3570    0.6872 H   0  0  0  0  0  0  0  0  0  0  0  0
   -2.5472    2.9425   -1.6899 C   0  0  0  0  0  0  0  0  0  0  0  0
   -1.5063    2.5878   -1.5794 H   0  0  0  0  0  0  0  0  0  0  0  0
   -2.5270    4.0414   -1.8459 H   0  0  0  0  0  0  0  0  0  0  0  0
   -2.9909    2.4784   -2.5947 H   0  0  0  0  0  0  0  0  0  0  0  0
   -4.7830    3.2322   -0.6186 C   0  0  0  0  0  0  0  0  0  0  0  0
   -5.3009    2.8406   -1.5181 H   0  0  0  0  0  0  0  0  0  0  0  0
   -4.6784    4.3282   -0.7473 H   0  0  0  0  0  0  0  0  0  0  0  0
   -5.4381    3.0627    0.2604 H   0  0  0  0  0  0  0  0  0  0  0  0
   -6.2098   -1.7017   -0.0759 C   0  0  0  0  0  0  0  0  0  0  0  0
   -6.4280   -2.4065    1.2821 C   0  0  0  0  0  0  0  0  0  0  0  0
   -6.4063   -1.6745    2.1146 H   0  0  0  0  0  0  0  0  0  0  0  0
   -5.6438   -3.1641    1.4807 H   0  0  0  0  0  0  0  0  0  0  0  0
   -7.4097   -2.9246    1.3023 H   0  0  0  0  0  0  0  0  0  0  0  0
   -6.2483   -2.7499   -1.2109 C   0  0  0  0  0  0  0  0  0  0  0  0
   -6.0950   -2.2687   -2.1981 H   0  0  0  0  0  0  0  0  0  0  0  0
   -7.2275   -3.2728   -1.2292 H   0  0  0  0  0  0  0  0  0  0  0  0
   -5.4592   -3.5182   -1.0858 H   0  0  0  0  0  0  0  0  0  0  0  0
   -7.3661   -0.7104   -0.2961 C   0  0  0  0  0  0  0  0  0  0  0  0
   -7.2814   -0.1863   -1.2693 H   0  0  0  0  0  0  0  0  0  0  0  0
   -7.4121    0.0553    0.5043 H   0  0  0  0  0  0  0  0  0  0  0  0
   -8.3324   -1.2541   -0.2929 H   0  0  0  0  0  0  0  0  0  0  0  0
  2 12  1  0  0  0  0
  2 14  1  0  0  0  0
  3 19  1  0  0  0  0
  4  1  1  1  0  0  0
  4 11  1  0  0  0  0
  5  6  2  0  0  0  0
  5  4  1  0  0  0  0
  6  8  1  0  0  0  0
  7  6  1  0  0  0  0
  8  9  2  0  0  0  0
  9 11  1  0  0  0  0
  9 10  1  0  0  0  0
 11 12  2  0  0  0  0
 12 13  1  0  0  0  0
 14 15  1  0  0  0  0
 14 16  1  0  0  0  0
 16 18  1  0  0  0  0
 16 17  1  0  0  0  0
 19 16  1  0  0  0  0
 19 20  1  0  0  0  0
 21 19  1  0  0  0  0
 22 25  1  0  0  0  0
 22  3  1  0  0  0  0
 23 22  1  0  0  0  0
 24 22  1  0  0  0  0
 25 27  1  0  0  0  0
 25 14  1  0  0  0  0
 26 25  1  0  0  0  0
 28  3  1  0  0  0  0
 28 29  1  0  0  0  0
 30 28  1  0  0  0  0
 31 28  1  0  0  0  0
 31 40  1  0  0  0  0
 32 31  2  0  0  0  0
 33 32  1  0  0  0  0
 34 32  1  0  0  0  0
 34 36  2  0  0  0  0
 35 34  1  0  0  0  0
 36 38  1  0  0  0  0
 37 36  1  0  0  0  0
 38 40  2  0  0  0  0
 38 39  1  0  0  0  0
 40 41  1  0  0  0  0
 42  5  1  0  0  0  0
 42 43  1  0  0  0  0
 43 44  1  0  0  0  0
 43 45  1  0  0  0  0
 46 43  1  0  0  0  0
 47 48  1  0  0  0  0
 47 42  1  0  0  0  0
 49 47  1  0  0  0  0
 50 47  1  0  0  0  0
 51 42  1  0  0  0  0
 51 54  1  0  0  0  0
 52 51  1  0  0  0  0
 53 51  1  0  0  0  0
 55  8  1  0  0  0  0
 55 56  1  0  0  0  0
 56 59  1  0  0  0  0
 56 58  1  0  0  0  0
 56 57  1  0  0  0  0
 60 63  1  0  0  0  0
 60 55  1  0  0  0  0
 61 60  1  0  0  0  0
 62 60  1  0  0  0  0
 64 67  1  0  0  0  0
 64 55  1  0  0  0  0
 64 66  1  0  0  0  0
 65 64  1  0  0  0  0
M  END
