1,4,6
q = -1.0, confidence = 0.028

 29 30  0  0  0  0  0  0  0  0999 V2000
    0.0008    0.1481    1.5564 O   0  5  0  0  0  0  0  0  0  0  0  0
    0.0004   -1.6265    2.9604 O   0  0  0  0  0  0  0  0  0  0  0  0
    0.0000   -1.3615   -0.6854 N   0  0  0  0  0  0  0  0  0  0  0  0
    2.0268    0.4426   -0.2031 N   0  0  0  0  0  2  0  0  0  0  0  0
    4.1200    0.0101    0.2766 N   0  0  0  0  0  0  0  0  0  0  0  0
   -2.0266    0.4419   -0.2019 N   0  0  0  0  0  2  0  0  0  0  0  0
   -4.1203    0.0102    0.2765 N   0  0  0  0  0  0  0  0  0  0  0  0
    1.2419   -1.5223   -1.4597 C   0  0  0  0  0  0  0  0  0  0  0  0
    2.3356   -0.7928   -0.7404 C   0  0  0  0  0  0  0  0  0  0  0  0
    3.1035    0.9075    0.4094 C   0  0  0  0  0  3  0  0  0  0  0  0
    3.6556   -1.0813   -0.4407 C   0  0  0  0  0  0  0  0  0  0  0  0
   -1.2420   -1.5226   -1.4593 C   0  0  0  0  0  0  0  0  0  0  0  0
   -2.3357   -0.7932   -0.7397 C   0  0  0  0  0  0  0  0  0  0  0  0
   -3.6559   -1.0813   -0.4408 C   0  0  0  0  0  0  0  0  0  0  0  0
   -3.1036    0.9071    0.4101 C   0  0  0  0  0  3  0  0  0  0  0  0
    0.0003   -2.0589    0.6075 C   0  0  0  0  0  0  0  0  0  0  0  0
    0.0005   -1.1141    1.8445 C   0  0  0  0  0  0  0  0  0  0  0  0
    1.5122   -2.5903   -1.6314 H   0  0  0  0  0  0  0  0  0  0  0  0
    1.0762   -1.0315   -2.4408 H   0  0  0  0  0  0  0  0  0  0  0  0
    3.1580    1.8554    0.9564 H   0  0  0  0  0  0  0  0  0  0  0  0
    5.0587    0.1160    0.6619 H   0  0  0  0  0  0  0  0  0  0  0  0
    4.2859   -1.9465   -0.6651 H   0  0  0  0  0  0  0  0  0  0  0  0
   -1.0768   -1.0318   -2.4404 H   0  0  0  0  0  0  0  0  0  0  0  0
   -1.5122   -2.5906   -1.6308 H   0  0  0  0  0  0  0  0  0  0  0  0
   -5.0591    0.1162    0.6615 H   0  0  0  0  0  0  0  0  0  0  0  0
   -4.2864   -1.9461   -0.6658 H   0  0  0  0  0  0  0  0  0  0  0  0
   -3.1581    1.8550    0.9572 H   0  0  0  0  0  0  0  0  0  0  0  0
    0.8882   -2.7178    0.6990 H   0  0  0  0  0  0  0  0  0  0  0  0
   -0.8875   -2.7179    0.6993 H   0  0  0  0  0  0  0  0  0  0  0  0
  1 17  1  0  0  0  0
  3 16  1  0  0  0  0
  4 10  1  0  0  0  0
  5 10  1  0  0  0  0
  5 21  1  0  0  0  0
  6 15  1  0  0  0  0
  7 15  1  0  0  0  0
  7 25  1  0  0  0  0
  8  9  1  0  0  0  0
  8  3  1  0  0  0  0
  9 11  2  0  0  0  0
  9  4  1  0  0  0  0
 10 20  1  0  0  0  0
 11  5  1  0  0  0  0
 12 13  1  0  0  0  0
 12  3  1  0  0  0  0
 13 14  2  0  0  0  0
 13  6  1  0  0  0  0
 14  7  1  0  0  0  0
 15 27  1  0  0  0  0
 16 28  1  0  0  0  0
 16 29  1  0  0  0  0
 16 17  1  0  0  0  0
 17  2  2  0  0  0  0
 18  8  1  0  0  0  0
 19  8  1  0  0  0  0
 22 11  1  0  0  0  0
 23 12  1  0  0  0  0
 24 12  1  0  0  0  0
 26 14  1  0  0  0  0
M  CHG  1   1  -1
M  END
