1,2,3
q = -1.0, confidence = 0.012

 32 32  0  0  0  0  0  0  0  0999 V2000
    0.8100    0.5409    0.0679 O   0  5  0  0  0  0  0  0  0  0  0  0
   -0.3266   -1.9201    0.0922 N   0  0  0  0  0  2  0  0  0  0  0  0
   -2.7438   -0.8559   -0.1234 N   0  0  0  0  0  0  0  0  0  0  0  0
    2.0762   -1.5299    0.0151 C   0  0  0  0  0  0  0  0  0  0  0  0
    1.9457   -0.0940    0.0134 C   0  0  0  0  0  0  0  0  0  0  0  0
    3.1395    0.7127   -0.0403 C   0  0  0  0  0  0  0  0  0  0  0  0
    4.3773    0.0754   -0.0906 C   0  0  0  0  0  0  0  0  0  0  0  0
    5.2848    0.6996   -0.1325 H   0  0  0  0  0  0  0  0  0  0  0  0
    4.5088   -1.3386   -0.0887 C   0  0  0  0  0  0  0  0  0  0  0  0
    5.5070   -1.7979   -0.1284 H   0  0  0  0  0  0  0  0  0  0  0  0
    3.3715   -2.1266   -0.0352 C   0  0  0  0  0  3  0  0  0  0  0  0
    3.4474   -3.2259   -0.0303 H   0  0  0  0  0  0  0  0  0  0  0  0
    0.9176   -2.3546    0.0854 C   0  0  0  0  0  0  0  0  0  0  0  0
    1.0777   -3.4502    0.1442 H   0  0  0  0  0  0  0  0  0  0  0  0
   -1.4212   -2.8707    0.2732 C   0  0  0  0  0  0  0  0  0  0  0  0
   -1.6450   -2.9883    1.3579 H   0  0  0  0  0  0  0  0  0  0  0  0
   -1.1630   -3.8807   -0.1134 H   0  0  0  0  0  0  0  0  0  0  0  0
   -2.6167   -2.2979   -0.4656 C   0  0  0  0  0  0  0  0  0  0  0  0
   -2.4352   -2.3593   -1.5566 H   0  0  0  0  0  0  0  0  0  0  0  0
   -3.5611   -2.8425   -0.2398 H   0  0  0  0  0  0  0  0  0  0  0  0
   -3.3554   -0.6475    1.2074 C   0  0  0  0  0  0  0  0  0  0  0  0
   -4.4096   -1.0074    1.2156 H   0  0  0  0  0  0  0  0  0  0  0  0
   -3.3210    0.4335    1.4349 H   0  0  0  0  0  0  0  0  0  0  0  0
   -2.7818   -1.1887    1.9822 H   0  0  0  0  0  0  0  0  0  0  0  0
   -3.5308   -0.1472   -1.1548 C   0  0  0  0  0  0  0  0  0  0  0  0
   -4.5636   -0.5597   -1.2026 H   0  0  0  0  0  0  0  0  0  0  0  0
   -3.0401   -0.2665   -2.1386 H   0  0  0  0  0  0  0  0  0  0  0  0
   -3.5511    0.9276   -0.9026 H   0  0  0  0  0  0  0  0  0  0  0  0
    2.9809    2.2055   -0.0392 C   0  0  0  0  0  0  0  0  0  0  0  0
    2.4329    2.5497    0.8624 H   0  0  0  0  0  0  0  0  0  0  0  0
    2.3567    2.5428   -0.8926 H   0  0  0  0  0  0  0  0  0  0  0  0
    3.9613    2.7167   -0.0837 H   0  0  0  0  0  0  0  0  0  0  0  0
  2 15  1  0  0  0  0
  3 21  1  0  0  0  0
  4 13  2  0  0  0  0
  5  4  1  0  0  0  0
  5  1  1  0  0  0  0
  6 29  1  0  0  0  0
  6  5  2  0  0  0  0
  7  9  2  0  0  0  0
  7  6  1  0  0  0  0
  8  7  1  0  0  0  0
  9 11  1  0  0  0  0
 10  9  1  0  0  0  0
 11 12  1  0  0  0  0
 11  4  1  0  0  0  0
 13  2  1  0  0  0  0
 13 14  1  0  0  0  0
 15 16  1  0  0  0  0
 17 15  1  0  0  0  0
 18 20  1  0  0  0  0
 18  3  1  0  0  0  0
 18 15  1  0  0  0  0
 19 18  1  0  0  0  0
 21 22  1  0  0  0  0
 21 23  1  0  0  0  0
 21 24  1  0  0  0  0
 25 28  1  0  0  0  0
 25  3  1  0  0  0  0
 26 25  1  0  0  0  0
 27 25  1  0  0  0  0
 29 30  1  0  0  0  0
 31 29  1  0  0  0  0
 32 29  1  0  0  0  0
M  CHG  1   1  -1
M  END
