2,3,5
q = -2.0, confidence = 0.976

 29 29  0  0  1  0  0  0  0  0999 V2000
   -3.2092   -3.3891    0.0532 S   0  0  0  0  0  0  0  0  0  0  0  0
    2.2629   -0.6241   -0.1358 O   0  0  0  0  0  1  0  0  0  0  0  0
    0.5847   -2.8404   -0.1085 N   0  0  0  0  0  2  0  0  0  0  0  0
   -0.5854   -3.5401   -0.0995 N   0  0  0  0  0  0  0  0  0  0  0  0
   -1.3509   -1.3484   -0.0740 N   0  0  0  0  0  2  0  0  0  0  0  0
   -2.1339   -0.7065    0.0641 H   0  0  0  0  0  0  0  0  0  0  0  0
    3.2380   -1.5101   -0.1141 C   0  0  2  0  0  3  0  0  0  0  0  0
    4.5772   -1.0263   -0.0935 C   0  0  0  0  0  0  0  0  0  0  0  0
    4.7156    0.0651   -0.0825 H   0  0  0  0  0  0  0  0  0  0  0  0
    5.6628   -1.8987   -0.0837 C   0  0  0  0  0  0  0  0  0  0  0  0
    6.6858   -1.4911   -0.0695 H   0  0  0  0  0  0  0  0  0  0  0  0
    5.4609   -3.2991   -0.0904 C   0  0  0  0  0  0  0  0  0  0  0  0
    6.3199   -3.9858   -0.0826 H   0  0  0  0  0  0  0  0  0  0  0  0
    4.1626   -3.7971   -0.1038 C   0  0  0  0  0  0  0  0  0  0  0  0
    3.9867   -4.8848   -0.1062 H   0  0  0  0  0  0  0  0  0  0  0  0
    3.0282   -2.9354   -0.1148 C   0  0  0  0  0  0  0  0  0  0  0  0
    1.7195   -3.5150   -0.1146 C   0  0  0  0  0  0  0  0  0  0  0  0
    1.6206   -4.6156   -0.1074 H   0  0  0  0  0  0  0  0  0  0  0  0
   -1.5885   -2.6738   -0.0477 C   0  0  0  0  0  0  0  0  0  0  0  0
   -4.2594   -1.8935   -0.0641 C   0  0  0  0  0  0  0  0  0  0  0  0
   -4.0477   -1.2228    0.7970 H   0  0  0  0  0  0  0  0  0  0  0  0
   -4.0006   -1.3440   -0.9937 H   0  0  0  0  0  0  0  0  0  0  0  0
   -5.7358   -2.2914   -0.0666 C   0  0  0  0  0  0  0  0  0  0  0  0
   -5.9264   -2.9798   -0.9177 H   0  0  0  0  0  0  0  0  0  0  0  0
   -5.9589   -2.8715    0.8547 H   0  0  0  0  0  0  0  0  0  0  0  0
   -6.6588   -1.0746   -0.1559 C   0  0  0  0  0  0  0  0  0  0  0  0
   -7.7249   -1.3771   -0.1523 H   0  0  0  0  0  0  0  0  0  0  0  0
   -6.4764   -0.4971   -1.0862 H   0  0  0  0  0  0  0  0  0  0  0  0
   -6.5000   -0.3841    0.6983 H   0  0  0  0  0  0  0  0  0  0  0  0
  3  4  1  0  0  0  0
  4 19  2  0  0  0  0
  5 19  1  0  0  0  0
  5  6  1  0  0  0  0
  7  2  1  6  0  0  0
  7  8  1  0  0  0  0
  8 10  2  0  0  0  0
  8  9  1  0  0  0  0
 10 11  1  0  0  0  0
 12 10  1  0  0  0  0
 12 13  1  0  0  0  0
 14 12  2  0  0  0  0
 15 14  1  0  0  0  0
 16 17  2  0  0  0  0
 16  7  1  0  0  0  0
 16 14  1  0  0  0  0
 17  3  1  0  0  0  0
 17 18  1  0  0  0  0
 19  1  1  0  0  0  0
 20  1  1  0  0  0  0
 20 21  1  0  0  0  0
 22 20  1  0  0  0  0
 23 20  1  0  0  0  0
 23 25  1  0  0  0  0
 24 23  1  0  0  0  0
 26 27  1  0  0  0  0
 26 23  1  0  0  0  0
 26 29  1  0  0  0  0
 28 26  1  0  0  0  0
M  END
