1,2
q = -1.0

 40 41  0  0  0  0  0  0  0  0999 V2000
    1.5067    1.0424   -0.0285 P   0  0  0  0  0  0  0  0  0  0  0  0
    2.0426   -1.3879   -1.5498 O   0  5  0  0  0  0  0  0  0  0  0  0
    3.0929    0.5330   -0.6364 C   0  0  0  0  0  0  0  0  0  0  0  0
    3.9894    1.1424   -0.4719 H   0  0  0  0  0  0  0  0  0  0  0  0
    3.1155   -0.6884   -1.2932 C   0  0  0  0  0  0  0  0  0  0  0  0
    4.4094   -1.3676   -1.7769 C   0  0  0  0  0  0  0  0  0  0  0  0
    4.2671   -1.6527   -3.2872 C   0  0  0  0  0  0  0  0  0  0  0  0
    4.1814   -0.7079   -3.8624 H   0  0  0  0  0  0  0  0  0  0  0  0
    3.3637   -2.2604   -3.4836 H   0  0  0  0  0  0  0  0  0  0  0  0
    5.1561   -2.2023   -3.6590 H   0  0  0  0  0  0  0  0  0  0  0  0
    4.5295   -2.7006   -1.0042 C   0  0  0  0  0  0  0  0  0  0  0  0
    5.4250   -3.2608   -1.3436 H   0  0  0  0  0  0  0  0  0  0  0  0
    3.6309   -3.3252   -1.1681 H   0  0  0  0  0  0  0  0  0  0  0  0
    4.6265   -2.5179    0.0858 H   0  0  0  0  0  0  0  0  0  0  0  0
    5.6565   -0.5082   -1.5262 C   0  0  0  0  0  0  0  0  0  0  0  0
    5.5989    0.4631   -2.0580 H   0  0  0  0  0  0  0  0  0  0  0  0
    6.5577   -1.0395   -1.8942 H   0  0  0  0  0  0  0  0  0  0  0  0
    5.8054   -0.3062   -0.4462 H   0  0  0  0  0  0  0  0  0  0  0  0
    1.5739    1.1655    1.8032 C   0  0  0  0  0  0  0  0  0  0  0  0
    0.4145    1.4453    2.5543 C   0  0  0  0  0  0  0  0  0  0  0  0
   -0.5521    1.5763    2.0513 H   0  0  0  0  0  0  0  0  0  0  0  0
    0.4888    1.5559    3.9504 C   0  0  0  0  0  0  0  0  0  0  0  0
   -0.4247    1.7713    4.5254 H   0  0  0  0  0  0  0  0  0  0  0  0
    1.7180    1.3870    4.6080 C   0  0  0  0  0  0  0  0  0  0  0  0
    1.7749    1.4731    5.7037 H   0  0  0  0  0  0  0  0  0  0  0  0
    2.8724    1.0952    3.8638 C   0  0  0  0  0  0  0  0  0  0  0  0
    3.8359    0.9467    4.3745 H   0  0  0  0  0  0  0  0  0  0  0  0
    2.8014    0.9772    2.4678 C   0  0  0  0  0  0  0  0  0  0  0  0
    3.6977    0.7227    1.8831 H   0  0  0  0  0  0  0  0  0  0  0  0
    1.2105    2.7619   -0.6142 C   0  0  0  0  0  0  0  0  0  0  0  0
    0.8622    3.8272    0.2379 C   0  0  0  0  0  0  0  0  0  0  0  0
    0.7694    3.6608    1.3203 H   0  0  0  0  0  0  0  0  0  0  0  0
    0.6354    5.1070   -0.2928 C   0  0  0  0  0  0  0  0  0  0  0  0
    0.3680    5.9340    0.3825 H   0  0  0  0  0  0  0  0  0  0  0  0
    0.7455    5.3318   -1.6732 C   0  0  0  0  0  0  0  0  0  0  0  0
    0.5634    6.3355   -2.0865 H   0  0  0  0  0  0  0  0  0  0  0  0
    1.1014    4.2727   -2.5267 C   0  0  0  0  0  0  0  0  0  0  0  0
    1.2009    4.4439   -3.6093 H   0  0  0  0  0  0  0  0  0  0  0  0
    1.3400    2.9965   -2.0005 C   0  0  0  0  0  0  0  0  0  0  0  0
    1.6457    2.1726   -2.6642 H   0  0  0  0  0  0  0  0  0  0  0  0
  1 19  1  0  0  0  0
  2  5  1  0  0  0  0
  3  4  1  0  0  0  0
  3  1  1  0  0  0  0
  5  3  2  0  0  0  0
  6 15  1  0  0  0  0
  6  5  1  0  0  0  0
  6 11  1  0  0  0  0
  7  6  1  0  0  0  0
  8  7  1  0  0  0  0
  9  7  1  0  0  0  0
 10  7  1  0  0  0  0
 11 14  1  0  0  0  0
 12 11  1  0  0  0  0
 13 11  1  0  0  0  0
 15 18  1  0  0  0  0
 16 15  1  0  0  0  0
 17 15  1  0  0  0  0
 19 28  2  0  0  0  0
 19 20  1  0  0  0  0
 20 22  2  0  0  0  0
 21 20  1  0  0  0  0
 22 23  1  0  0  0  0
 22 24  1  0  0  0  0
 24 25  1  0  0  0  0
 26 27  1  0  0  0  0
 26 24  2  0  0  0  0
 28 26  1  0  0  0  0
 29 28  1  0  0  0  0
 30  1  1  0  0  0  0
 30 31  1  0  0  0  0
 31 32  1  0  0  0  0
 33 31  2  0  0  0  0
 33 34  1  0  0  0  0
 35 33  1  0  0  0  0
 36 35  1  0  0  0  0
 37 39  1  0  0  0  0
 37 35  2  0  0  0  0
 38 37  1  0  0  0  0
 39 30  2  0  0  0  0
 40 39  1  0  0  0  0
M  CHG  1   2  -1
M  END
