1,2
q = -1.0

 29 30  0  0  0  0  0  0  0  0999 V2000
   -1.6377   -0.2128   -0.9691 P   0  0  0  0  0  0  0  0  0  0  0  0
   -0.3493   -2.6648   -1.6889 O   0  5  0  0  0  0  0  0  0  0  0  0
   -1.8842   -3.4386   -3.1329 O   0  0  0  0  0  0  0  0  0  0  0  0
   -1.4083   -2.5356   -2.4646 C   0  0  0  0  0  0  0  0  0  0  0  0
   -2.0221   -1.1094   -2.5314 C   0  0  0  0  0  0  0  0  0  0  0  0
   -3.0112   -0.6008    0.1716 C   0  0  0  0  0  0  0  0  0  0  0  0
   -2.7297   -1.2077    1.4110 C   0  0  0  0  0  0  0  0  0  0  0  0
   -3.7809   -1.5401    2.2795 C   0  0  0  0  0  0  0  0  0  0  0  0
   -5.1100   -1.2763    1.9159 C   0  0  0  0  0  0  0  0  0  0  0  0
   -5.3946   -0.6882    0.6717 C   0  0  0  0  0  0  0  0  0  0  0  0
   -4.3508   -0.3552   -0.2025 C   0  0  0  0  0  0  0  0  0  0  0  0
   -1.7080    1.5742   -1.3622 C   0  0  0  0  0  0  0  0  0  0  0  0
   -2.6947    2.4454   -0.8650 C   0  0  0  0  0  0  0  0  0  0  0  0
   -2.6908    3.7965   -1.2460 C   0  0  0  0  0  0  0  0  0  0  0  0
   -1.7036    4.2875   -2.1130 C   0  0  0  0  0  0  0  0  0  0  0  0
   -0.7031    3.4248   -2.5930 C   0  0  0  0  0  0  0  0  0  0  0  0
   -0.7019    2.0756   -2.2177 C   0  0  0  0  0  0  0  0  0  0  0  0
   -1.5206   -0.5583   -3.3545 H   0  0  0  0  0  0  0  0  0  0  0  0
   -3.1046   -1.1559   -2.7549 H   0  0  0  0  0  0  0  0  0  0  0  0
   -1.6895   -1.4313    1.6932 H   0  0  0  0  0  0  0  0  0  0  0  0
   -3.5521   -2.0170    3.2444 H   0  0  0  0  0  0  0  0  0  0  0  0
   -5.9322   -1.5412    2.5981 H   0  0  0  0  0  0  0  0  0  0  0  0
   -6.4371   -0.4959    0.3761 H   0  0  0  0  0  0  0  0  0  0  0  0
   -4.5830    0.0910   -1.1820 H   0  0  0  0  0  0  0  0  0  0  0  0
   -3.4563    2.0758   -0.1641 H   0  0  0  0  0  0  0  0  0  0  0  0
   -3.4633    4.4726   -0.8495 H   0  0  0  0  0  0  0  0  0  0  0  0
   -1.7057    5.3476   -2.4085 H   0  0  0  0  0  0  0  0  0  0  0  0
    0.0852    3.8058   -3.2596 H   0  0  0  0  0  0  0  0  0  0  0  0
    0.0950    1.4030   -2.5743 H   0  0  0  0  0  0  0  0  0  0  0  0
  1  6  1  0  0  0  0
  3  4  2  0  0  0  0
  4  2  1  0  0  0  0
  5  4  1  0  0  0  0
  5  1  1  0  0  0  0
  6  7  1  0  0  0  0
  7 20  1  0  0  0  0
  7  8  2  0  0  0  0
  8 21  1  0  0  0  0
  9  8  1  0  0  0  0
  9 22  1  0  0  0  0
 10  9  2  0  0  0  0
 11  6  2  0  0  0  0
 11 10  1  0  0  0  0
 12  1  1  0  0  0  0
 12 13  1  0  0  0  0
 13 25  1  0  0  0  0
 14 13  2  0  0  0  0
 14 26  1  0  0  0  0
 15 14  1  0  0  0  0
 16 17  1  0  0  0  0
 16 15  2  0  0  0  0
 17 12  2  0  0  0  0
 18  5  1  0  0  0  0
 19  5  1  0  0  0  0
 23 10  1  0  0  0  0
 24 11  1  0  0  0  0
 27 15  1  0  0  0  0
 28 16  1  0  0  0  0
 29 17  1  0  0  0  0
M  CHG  1   2  -1
M  END
