1,3
q = 0, confidence = 1.0

 25 24  0  0  0  0  0  0  0  0999 V2000
   -3.2116   -0.6244   -0.7024 P   0  0  0  0  0  0  0  0  0  0  0  0
   -1.7313    2.2538    0.0987 P   0  0  0  0  0  4  0  0  0  0  0  0
   -0.9468    1.0998   -0.5890 O   0  0  0  0  0  1  0  0  0  0  0  0
   -4.2178    0.8178   -0.0511 C   0  0  0  0  0  0  0  0  0  0  0  0
   -5.2221    0.8246   -0.5330 H   0  0  0  0  0  0  0  0  0  0  0  0
   -4.3556    0.6021    1.0275 H   0  0  0  0  0  0  0  0  0  0  0  0
   -3.5394    2.1734   -0.2617 C   0  0  0  0  0  0  0  0  0  0  0  0
   -4.0369    2.9761    0.3243 H   0  0  0  0  0  0  0  0  0  0  0  0
   -3.6120    2.4751   -1.3288 H   0  0  0  0  0  0  0  0  0  0  0  0
   -4.4241   -1.9974   -0.5402 C   0  0  0  0  0  0  0  0  0  0  0  0
   -4.0004   -2.9047   -1.0113 H   0  0  0  0  0  0  0  0  0  0  0  0
   -5.3930   -1.7427   -1.0147 H   0  0  0  0  0  0  0  0  0  0  0  0
   -4.5653   -2.2094    0.5368 H   0  0  0  0  0  0  0  0  0  0  0  0
   -3.1776   -0.2622   -2.5159 C   0  0  0  0  0  0  0  0  0  0  0  0
   -2.9355   -1.1877   -3.0718 H   0  0  0  0  0  0  0  0  0  0  0  0
   -2.3703    0.4709   -2.7053 H   0  0  0  0  0  0  0  0  0  0  0  0
   -4.1512    0.1309   -2.8735 H   0  0  0  0  0  0  0  0  0  0  0  0
   -1.4812    2.4925    1.8869 C   0  0  0  0  0  0  0  0  0  0  0  0
   -1.9735    1.6704    2.4366 H   0  0  0  0  0  0  0  0  0  0  0  0
   -1.8743    3.4840    2.1933 H   0  0  0  0  0  0  0  0  0  0  0  0
   -0.3919    2.4433    2.0778 H   0  0  0  0  0  0  0  0  0  0  0  0
   -1.2160    3.8191   -0.6716 C   0  0  0  0  0  0  0  0  0  0  0  0
   -1.3554    3.7373   -1.7666 H   0  0  0  0  0  0  0  0  0  0  0  0
   -0.1345    3.9601   -0.4721 H   0  0  0  0  0  0  0  0  0  0  0  0
   -1.7964    4.6761   -0.2774 H   0  0  0  0  0  0  0  0  0  0  0  0
  1 10  1  0  0  0  0
  1  4  1  0  0  0  0
  2 18  1  0  0  0  0
  3  2  1  0  0  0  0
  4  6  1  0  0  0  0
  5  4  1  0  0  0  0
  7  4  1  0  0  0  0
  7  2  1  0  0  0  0
  7  8  1  0  0  0  0
  9  7  1  0  0  0  0
 10 13  1  0  0  0  0
 11 10  1  0  0  0  0
 12 10  1  0  0  0  0
 14  1  1  0  0  0  0
 15 14  1  0  0  0  0
 16 14  1  0  0  0  0
 17 14  1  0  0  0  0
 18 21  1  0  0  0  0
 18 20  1  0  0  0  0
 18 19  1  0  0  0  0
 22 24  1  0  0  0  0
 22 25  1  0  0  0  0
 22  2  1  0  0  0  0
 23 22  1  0  0  0  0
M  END
