1,2
q = -1.0, confidence = 0.0

 36 36  0  0  0  0  0  0  0  0999 V2000
   -0.5259    2.1255   -0.1486 P   0  0  0  0  0  0  0  0  0  0  0  0
   -1.8558   -0.3555   -0.0357 O   0  5  0  0  0  0  0  0  0  0  0  0
   -4.1451    0.2399   -0.0712 C   0  0  0  0  0  0  0  0  0  0  0  0
   -2.7124    0.6536   -0.0674 C   0  0  0  0  0  0  0  0  0  0  0  0
   -2.3021    1.9787   -0.1138 C   0  0  0  0  0  0  0  0  0  0  0  0
   -3.0028    2.8184   -0.2111 H   0  0  0  0  0  0  0  0  0  0  0  0
    0.0682    3.1660    1.2825 C   0  0  0  0  0  0  0  0  0  0  0  0
    1.1629    3.2606    1.1127 H   0  0  0  0  0  0  0  0  0  0  0  0
   -0.0121    3.0156   -1.7097 C   0  0  0  0  0  0  0  0  0  0  0  0
   -0.5704    3.9791   -1.7222 H   0  0  0  0  0  0  0  0  0  0  0  0
   -0.1548    2.3774    2.5781 C   0  0  0  0  0  0  0  0  0  0  0  0
   -1.2305    2.1432    2.7200 H   0  0  0  0  0  0  0  0  0  0  0  0
    0.4037    1.4201    2.5534 H   0  0  0  0  0  0  0  0  0  0  0  0
    0.1897    2.9613    3.4568 H   0  0  0  0  0  0  0  0  0  0  0  0
   -0.5751    4.5549    1.3079 C   0  0  0  0  0  0  0  0  0  0  0  0
   -0.1851    5.1493    2.1609 H   0  0  0  0  0  0  0  0  0  0  0  0
   -0.3738    5.1300    0.3815 H   0  0  0  0  0  0  0  0  0  0  0  0
   -1.6753    4.4777    1.4309 H   0  0  0  0  0  0  0  0  0  0  0  0
   -0.4529    2.1678   -2.9093 C   0  0  0  0  0  0  0  0  0  0  0  0
    0.1061    1.2092   -2.9326 H   0  0  0  0  0  0  0  0  0  0  0  0
   -1.5342    1.9284   -2.8646 H   0  0  0  0  0  0  0  0  0  0  0  0
   -0.2515    2.7043   -3.8595 H   0  0  0  0  0  0  0  0  0  0  0  0
    1.4982    3.2821   -1.7168 C   0  0  0  0  0  0  0  0  0  0  0  0
    1.8082    3.7047   -2.6951 H   0  0  0  0  0  0  0  0  0  0  0  0
    1.8024    4.0050   -0.9336 H   0  0  0  0  0  0  0  0  0  0  0  0
    2.0599    2.3404   -1.5483 H   0  0  0  0  0  0  0  0  0  0  0  0
   -5.1899    1.1416    0.2282 C   0  0  0  0  0  0  0  0  0  0  0  0
   -4.9509    2.1807    0.4977 H   0  0  0  0  0  0  0  0  0  0  0  0
   -6.5252    0.7187    0.2121 C   0  0  0  0  0  0  0  0  0  0  0  0
   -7.3266    1.4334    0.4543 H   0  0  0  0  0  0  0  0  0  0  0  0
   -6.8423   -0.6135   -0.1029 C   0  0  0  0  0  0  0  0  0  0  0  0
   -7.8922   -0.9442   -0.1142 H   0  0  0  0  0  0  0  0  0  0  0  0
   -5.8114   -1.5202   -0.3971 C   0  0  0  0  0  0  0  0  0  0  0  0
   -6.0515   -2.5660   -0.6436 H   0  0  0  0  0  0  0  0  0  0  0  0
   -4.4753   -1.0987   -0.3780 C   0  0  0  0  0  0  0  0  0  0  0  0
   -3.6555   -1.7943   -0.6052 H   0  0  0  0  0  0  0  0  0  0  0  0
  1  5  1  0  0  0  0
  1  7  1  0  0  0  0
  3  4  1  0  0  0  0
  3 27  1  0  0  0  0
  4  2  1  0  0  0  0
  5  4  2  0  0  0  0
  6  5  1  0  0  0  0
  7 15  1  0  0  0  0
  7 11  1  0  0  0  0
  8  7  1  0  0  0  0
  9  1  1  0  0  0  0
 10  9  1  0  0  0  0
 11 12  1  0  0  0  0
 11 14  1  0  0  0  0
 13 11  1  0  0  0  0
 15 18  1  0  0  0  0
 15 16  1  0  0  0  0
 17 15  1  0  0  0  0
 19 21  1  0  0  0  0
 19  9  1  0  0  0  0
 20 19  1  0  0  0  0
 22 19  1  0  0  0  0
 23  9  1  0  0  0  0
 23 26  1  0  0  0  0
 23 25  1  0  0  0  0
 24 23  1  0  0  0  0
 27 28  1  0  0  0  0
 29 27  2  0  0  0  0
 29 30  1  0  0  0  0
 31 29  1  0  0  0  0
 32 31  1  0  0  0  0
 33 35  1  0  0  0  0
 33 31  2  0  0  0  0
 34 33  1  0  0  0  0
 35  3  2  0  0  0  0
 36 35  1  0  0  0  0
M  CHG  1   2  -1
M  END
