1,2
q = -1.0

 30 31  0  0  0  0  0  0  0  0999 V2000
   -0.5548    1.5699    0.4195 P   0  0  0  0  0  0  0  0  0  0  0  0
   -0.4934    1.2674    3.1226 O   0  5  0  0  0  0  0  0  0  0  0  0
   -1.0893    2.8066    1.4643 N   0  0  0  0  0  0  0  0  0  0  0  0
   -1.3205    3.3844    3.8255 C   0  0  0  0  0  0  0  0  0  0  0  0
   -2.0683    2.9084    4.4906 H   0  0  0  0  0  0  0  0  0  0  0  0
   -1.7193    4.3266    3.4126 H   0  0  0  0  0  0  0  0  0  0  0  0
   -0.4273    3.5935    4.4478 H   0  0  0  0  0  0  0  0  0  0  0  0
   -0.9421    2.4222    2.7239 C   0  0  0  0  0  0  0  0  0  0  0  0
    2.1406    1.9163   -0.1299 C   0  0  0  0  0  0  0  0  0  0  0  0
    2.2671    1.2551    0.7419 H   0  0  0  0  0  0  0  0  0  0  0  0
    3.2532    2.4220   -0.8136 C   0  0  0  0  0  0  0  0  0  0  0  0
    4.2669    2.1609   -0.4756 H   0  0  0  0  0  0  0  0  0  0  0  0
    3.0691    3.2403   -1.9399 C   0  0  0  0  0  0  0  0  0  0  0  0
    3.9421    3.6299   -2.4856 H   0  0  0  0  0  0  0  0  0  0  0  0
    1.7718    3.5629   -2.3717 C   0  0  0  0  0  0  0  0  0  0  0  0
    1.6284    4.2120   -3.2492 H   0  0  0  0  0  0  0  0  0  0  0  0
    0.6544    3.0647   -1.6848 C   0  0  0  0  0  0  0  0  0  0  0  0
   -0.3618    3.3232   -2.0187 H   0  0  0  0  0  0  0  0  0  0  0  0
    0.8369    2.2306   -0.5642 C   0  0  0  0  0  0  0  0  0  0  0  0
   -3.2494    1.5460   -0.2725 C   0  0  0  0  0  0  0  0  0  0  0  0
   -3.3840    1.9809    0.7294 H   0  0  0  0  0  0  0  0  0  0  0  0
   -1.9413    1.3140   -0.7441 C   0  0  0  0  0  0  0  0  0  0  0  0
   -1.7556    0.7916   -2.0395 C   0  0  0  0  0  0  0  0  0  0  0  0
   -0.7388    0.6273   -2.4225 H   0  0  0  0  0  0  0  0  0  0  0  0
   -2.8602    0.4914   -2.8477 C   0  0  0  0  0  0  0  0  0  0  0  0
   -2.7030    0.0785   -3.8554 H   0  0  0  0  0  0  0  0  0  0  0  0
   -4.1616    0.7086   -2.3677 C   0  0  0  0  0  0  0  0  0  0  0  0
   -5.0295    0.4667   -2.9999 H   0  0  0  0  0  0  0  0  0  0  0  0
   -4.3530    1.2418   -1.0824 C   0  0  0  0  0  0  0  0  0  0  0  0
   -5.3715    1.4280   -0.7085 H   0  0  0  0  0  0  0  0  0  0  0  0
  1  3  1  0  0  0  0
  3  8  2  0  0  0  0
  4  7  1  0  0  0  0
  4  5  1  0  0  0  0
  6  4  1  0  0  0  0
  8  2  1  0  0  0  0
  8  4  1  0  0  0  0
  9 10  1  0  0  0  0
 11 12  1  0  0  0  0
 11  9  2  0  0  0  0
 13 11  1  0  0  0  0
 14 13  1  0  0  0  0
 15 13  2  0  0  0  0
 15 17  1  0  0  0  0
 16 15  1  0  0  0  0
 17 19  2  0  0  0  0
 18 17  1  0  0  0  0
 19  9  1  0  0  0  0
 19  1  1  0  0  0  0
 20 21  1  0  0  0  0
 22 20  1  0  0  0  0
 22  1  1  0  0  0  0
 23 22  2  0  0  0  0
 24 23  1  0  0  0  0
 25 27  2  0  0  0  0
 25 23  1  0  0  0  0
 26 25  1  0  0  0  0
 27 29  1  0  0  0  0
 28 27  1  0  0  0  0
 29 30  1  0  0  0  0
 29 20  2  0  0  0  0
M  CHG  1   2  -1
M  END
