1,7
q = -1.0

 48 49  0  0  0  0  0  0  0  0999 V2000
    1.6715    1.6663    0.0443 P   0  0  0  0  0  0  0  0  0  0  0  0
   -4.5541    1.8296   -1.7851 F   0  0  0  0  0  0  0  0  0  0  0  0
   -2.5367   -0.1368    2.0561 F   0  0  0  0  0  0  0  0  0  0  0  0
   -6.3886   -0.1663   -1.8288 F   0  0  0  0  0  0  0  0  0  0  0  0
   -6.2614   -2.1976    0.0095 F   0  0  0  0  0  0  0  0  0  0  0  0
   -4.2988   -2.1853    1.9300 F   0  0  0  0  0  0  0  0  0  0  0  0
   -0.7541    0.2114   -0.1063 O   0  5  0  0  0  0  0  0  0  0  0  0
   -1.0251    1.4844    0.0145 C   0  0  0  0  0  0  0  0  0  0  0  0
   -2.6697    3.3047    0.1501 C   0  0  0  0  0  0  0  0  0  0  0  0
   -3.7201    3.6302    0.1942 H   0  0  0  0  0  0  0  0  0  0  0  0
   -5.4330   -0.1607   -0.8929 C   0  0  0  0  0  0  0  0  0  0  0  0
   -2.3895    1.9315    0.1018 C   0  0  0  0  0  0  0  0  0  0  0  0
   -3.4533    0.9025    0.1125 C   0  0  0  0  0  0  0  0  0  0  0  0
   -4.4817    0.8730   -0.8493 C   0  0  0  0  0  0  0  0  0  0  0  0
   -5.3701   -1.2028    0.0469 C   0  0  0  0  0  0  0  0  0  0  0  0
    0.0157    2.4655    0.0576 C   0  0  0  0  0  0  0  0  0  0  0  0
   -4.3651   -1.1917    1.0281 C   0  0  0  0  0  0  0  0  0  0  0  0
   -3.4463   -0.1345    1.0666 C   0  0  0  0  0  0  0  0  0  0  0  0
   -1.6392    4.2599    0.1662 C   0  0  0  0  0  0  0  0  0  0  0  0
   -1.8779    5.3317    0.2188 H   0  0  0  0  0  0  0  0  0  0  0  0
   -0.3021    3.8356    0.1364 C   0  0  0  0  0  0  0  0  0  0  0  0
    0.4944    4.5900    0.1784 H   0  0  0  0  0  0  0  0  0  0  0  0
    2.4208    2.0724    1.7544 C   0  0  0  0  0  0  0  0  0  0  0  0
    2.6100    2.4070   -1.4429 C   0  0  0  0  0  0  0  0  0  0  0  0
    1.8930    1.7760   -2.6540 C   0  0  0  0  0  0  0  0  0  0  0  0
    2.3700    2.1271   -3.5937 H   0  0  0  0  0  0  0  0  0  0  0  0
    0.8222    2.0620   -2.6826 H   0  0  0  0  0  0  0  0  0  0  0  0
    1.9450    0.6703   -2.6236 H   0  0  0  0  0  0  0  0  0  0  0  0
    3.8735    1.5793    1.8583 C   0  0  0  0  0  0  0  0  0  0  0  0
    4.1755    1.5835    2.9273 H   0  0  0  0  0  0  0  0  0  0  0  0
    4.5746    2.2418    1.3178 H   0  0  0  0  0  0  0  0  0  0  0  0
    3.9990    0.5497    1.4748 H   0  0  0  0  0  0  0  0  0  0  0  0
    1.5285    1.2772    2.7300 C   0  0  0  0  0  0  0  0  0  0  0  0
    1.5972    0.1875    2.5413 H   0  0  0  0  0  0  0  0  0  0  0  0
    0.4625    1.5697    2.6453 H   0  0  0  0  0  0  0  0  0  0  0  0
    1.8588    1.4719    3.7725 H   0  0  0  0  0  0  0  0  0  0  0  0
    4.0907    1.9906   -1.4177 C   0  0  0  0  0  0  0  0  0  0  0  0
    4.5318    2.1753   -2.4204 H   0  0  0  0  0  0  0  0  0  0  0  0
    4.2313    0.9210   -1.1769 H   0  0  0  0  0  0  0  0  0  0  0  0
    4.6695    2.5907   -0.6904 H   0  0  0  0  0  0  0  0  0  0  0  0
    2.5188    3.9365   -1.5551 C   0  0  0  0  0  0  0  0  0  0  0  0
    2.9404    4.4544   -0.6715 H   0  0  0  0  0  0  0  0  0  0  0  0
    1.4803    4.2824   -1.7100 H   0  0  0  0  0  0  0  0  0  0  0  0
    3.1112    4.2594   -2.4379 H   0  0  0  0  0  0  0  0  0  0  0  0
    2.3569    3.5645    2.1116 C   0  0  0  0  0  0  0  0  0  0  0  0
    1.3174    3.9402    2.1468 H   0  0  0  0  0  0  0  0  0  0  0  0
    2.9398    4.1920    1.4090 H   0  0  0  0  0  0  0  0  0  0  0  0
    2.7977    3.7071    3.1214 H   0  0  0  0  0  0  0  0  0  0  0  0
  1 16  1  0  0  0  0
  1 23  1  0  0  0  0
  2 14  1  0  0  0  0
  4 11  1  0  0  0  0
  5 15  1  0  0  0  0
  7  8  1  0  0  0  0
  8 16  2  0  0  0  0
  8 12  1  0  0  0  0
  9 19  1  0  0  0  0
  9 10  1  0  0  0  0
 11 14  2  0  0  0  0
 11 15  1  0  0  0  0
 12 13  1  0  0  0  0
 12  9  2  0  0  0  0
 13 18  2  0  0  0  0
 14 13  1  0  0  0  0
 15 17  2  0  0  0  0
 16 21  1  0  0  0  0
 17 18  1  0  0  0  0
 17  6  1  0  0  0  0
 18  3  1  0  0  0  0
 19 20  1  0  0  0  0
 21 19  2  0  0  0  0
 21 22  1  0  0  0  0
 23 29  1  0  0  0  0
 23 45  1  0  0  0  0
 23 33  1  0  0  0  0
 24 37  1  0  0  0  0
 24  1  1  0  0  0  0
 25 28  1  0  0  0  0
 25 24  1  0  0  0  0
 26 25  1  0  0  0  0
 27 25  1  0  0  0  0
 29 30  1  0  0  0  0
 31 29  1  0  0  0  0
 32 29  1  0  0  0  0
 33 36  1  0  0  0  0
 34 33  1  0  0  0  0
 35 33  1  0  0  0  0
 37 39  1  0  0  0  0
 37 40  1  0  0  0  0
 38 37  1  0  0  0  0
 41 24  1  0  0  0  0
 41 42  1  0  0  0  0
 43 41  1  0  0  0  0
 44 41  1  0  0  0  0
 45 46  1  0  0  0  0
 45 48  1  0  0  0  0
 47 45  1  0  0  0  0
M  CHG  1   7  -1
M  END
