1,2
q = -1.0

 36 37  0  0  0  0  0  0  0  0999 V2000
    1.5791    0.1442   -0.3395 P   0  0  2  0  0  0  0  0  0  0  0  0
    1.3267   -2.6314   -0.0907 O   0  5  0  0  0  0  0  0  0  0  0  0
    3.0183   -0.9409   -0.2412 C   0  0  0  0  0  0  0  0  0  0  0  0
    2.5974   -2.3048   -0.1599 C   0  0  0  0  0  0  0  0  0  0  0  0
    3.6295   -3.2907   -0.1452 C   0  0  0  0  0  0  0  0  0  0  0  0
    3.3348   -4.3491   -0.0941 H   0  0  0  0  0  0  0  0  0  0  0  0
    4.9699   -2.9104   -0.1725 C   0  0  0  0  0  0  0  0  0  0  0  0
    5.7429   -3.6968   -0.1467 H   0  0  0  0  0  0  0  0  0  0  0  0
    5.3842   -1.5522   -0.2188 C   0  0  0  0  0  0  0  0  0  0  0  0
    4.3797   -0.5742   -0.2551 C   0  0  0  0  0  0  0  0  0  0  0  0
    4.6578    0.4923   -0.2796 H   0  0  0  0  0  0  0  0  0  0  0  0
    6.8488   -1.1897   -0.2240 C   0  0  0  0  0  0  0  0  0  0  0  0
    7.3810   -1.6388   -1.0896 H   0  0  0  0  0  0  0  0  0  0  0  0
    7.3664   -1.5525    0.6899 H   0  0  0  0  0  0  0  0  0  0  0  0
    6.9947   -0.0928   -0.2755 H   0  0  0  0  0  0  0  0  0  0  0  0
    1.4700    0.8815   -2.0538 C   0  0  0  0  0  0  0  0  0  0  0  0
    0.6569    1.6372   -1.9792 H   0  0  0  0  0  0  0  0  0  0  0  0
    1.0113   -0.2304   -3.0056 C   0  0  0  0  0  0  0  0  0  0  0  0
    0.0601   -0.6839   -2.6605 H   0  0  0  0  0  0  0  0  0  0  0  0
    1.7654   -1.0421   -3.0601 H   0  0  0  0  0  0  0  0  0  0  0  0
    0.8619    0.1741   -4.0277 H   0  0  0  0  0  0  0  0  0  0  0  0
    2.7704    1.5466   -2.5102 C   0  0  0  0  0  0  0  0  0  0  0  0
    3.1141    2.3346   -1.8109 H   0  0  0  0  0  0  0  0  0  0  0  0
    2.6261    2.0157   -3.5057 H   0  0  0  0  0  0  0  0  0  0  0  0
    3.5816    0.7971   -2.6035 H   0  0  0  0  0  0  0  0  0  0  0  0
    1.8651    1.5263    0.8269 C   0  0  0  0  0  0  0  0  0  0  0  0
    2.3051    1.1957    2.1284 C   0  0  0  0  0  0  0  0  0  0  0  0
    2.5454    0.1475    2.3659 H   0  0  0  0  0  0  0  0  0  0  0  0
    2.4374    2.1905    3.1055 C   0  0  0  0  0  0  0  0  0  0  0  0
    2.7785    1.9201    4.1163 H   0  0  0  0  0  0  0  0  0  0  0  0
    2.1377    3.5289    2.7965 C   0  0  0  0  0  0  0  0  0  0  0  0
    2.2417    4.3096    3.5651 H   0  0  0  0  0  0  0  0  0  0  0  0
    1.7154    3.8671    1.5020 C   0  0  0  0  0  0  0  0  0  0  0  0
    1.4918    4.9151    1.2498 H   0  0  0  0  0  0  0  0  0  0  0  0
    1.5779    2.8722    0.5202 C   0  0  0  0  0  0  0  0  0  0  0  0
    1.2389    3.1521   -0.4869 H   0  0  0  0  0  0  0  0  0  0  0  0
  1 16  1  6  0  0  0
  1  3  1  0  0  0  0
  1 26  1  0  0  0  0
  3  4  1  0  0  0  0
  4  5  2  0  0  0  0
  4  2  1  0  0  0  0
  5  6  1  0  0  0  0
  7  8  1  0  0  0  0
  7  5  1  0  0  0  0
  9  7  2  0  0  0  0
 10  3  2  0  0  0  0
 10  9  1  0  0  0  0
 11 10  1  0  0  0  0
 12  9  1  0  0  0  0
 12 14  1  0  0  0  0
 13 12  1  0  0  0  0
 15 12  1  0  0  0  0
 16 17  1  0  0  0  0
 18 19  1  0  0  0  0
 18 16  1  0  0  0  0
 20 18  1  0  0  0  0
 21 18  1  0  0  0  0
 22 16  1  0  0  0  0
 22 23  1  0  0  0  0
 24 22  1  0  0  0  0
 25 22  1  0  0  0  0
 26 27  1  0  0  0  0
 27 28  1  0  0  0  0
 27 29  2  0  0  0  0
 29 30  1  0  0  0  0
 31 29  1  0  0  0  0
 31 32  1  0  0  0  0
 33 31  2  0  0  0  0
 34 33  1  0  0  0  0
 35 26  2  0  0  0  0
 35 33  1  0  0  0  0
 36 35  1  0  0  0  0
M  CHG  1   2  -1
M  END
