1,2
q = -1.0, confidence = 0.0

 36 37  0  0  0  0  0  0  0  0999 V2000
    0.0515    0.2832    0.5156 P   0  0  1  0  0  0  0  0  0  0  0  0
   -0.3648   -2.1591   -0.8335 O   0  5  0  0  0  0  0  0  0  0  0  0
    1.4161   -0.7787   -0.0136 C   0  0  0  0  0  0  0  0  0  0  0  0
    0.9227   -1.9591   -0.6463 C   0  0  0  0  0  0  0  0  0  0  0  0
    1.8939   -2.9158   -1.0654 C   0  0  0  0  0  0  0  0  0  0  0  0
    1.5418   -3.8382   -1.5505 H   0  0  0  0  0  0  0  0  0  0  0  0
    3.2525   -2.6736   -0.8703 C   0  0  0  0  0  0  0  0  0  0  0  0
    3.9787   -3.4299   -1.2122 H   0  0  0  0  0  0  0  0  0  0  0  0
    3.7413   -1.4895   -0.2560 C   0  0  0  0  0  0  0  0  0  0  0  0
    2.7931   -0.5472    0.1681 C   0  0  0  0  0  0  0  0  0  0  0  0
    3.1320    0.3903    0.6410 H   0  0  0  0  0  0  0  0  0  0  0  0
    5.2228   -1.2646   -0.0803 C   0  0  0  0  0  0  0  0  0  0  0  0
    5.7542   -1.2422   -1.0559 H   0  0  0  0  0  0  0  0  0  0  0  0
    5.6939   -2.0721    0.5199 H   0  0  0  0  0  0  0  0  0  0  0  0
    5.4290   -0.3042    0.4321 H   0  0  0  0  0  0  0  0  0  0  0  0
    0.1532    0.4197    2.3796 C   0  0  0  0  0  0  0  0  0  0  0  0
    1.1649    0.8311    2.5958 H   0  0  0  0  0  0  0  0  0  0  0  0
   -0.9184    1.3662    2.9273 C   0  0  0  0  0  0  0  0  0  0  0  0
   -0.8475    2.3820    2.4903 H   0  0  0  0  0  0  0  0  0  0  0  0
   -0.8235    1.4614    4.0288 H   0  0  0  0  0  0  0  0  0  0  0  0
   -1.9324    0.9729    2.7119 H   0  0  0  0  0  0  0  0  0  0  0  0
    0.0581   -0.9899    2.9723 C   0  0  0  0  0  0  0  0  0  0  0  0
    0.8705   -1.6432    2.5979 H   0  0  0  0  0  0  0  0  0  0  0  0
   -0.9062   -1.4644    2.6955 H   0  0  0  0  0  0  0  0  0  0  0  0
    0.1235   -0.9489    4.0790 H   0  0  0  0  0  0  0  0  0  0  0  0
    0.3848    1.9772   -0.1174 C   0  0  0  0  0  0  0  0  0  0  0  0
    1.1971    2.9084    0.5629 C   0  0  0  0  0  0  0  0  0  0  0  0
    1.6237    2.6628    1.5471 H   0  0  0  0  0  0  0  0  0  0  0  0
    1.4714    4.1593   -0.0115 C   0  0  0  0  0  0  0  0  0  0  0  0
    2.1065    4.8791    0.5270 H   0  0  0  0  0  0  0  0  0  0  0  0
    0.9398    4.4915   -1.2676 C   0  0  0  0  0  0  0  0  0  0  0  0
    1.1560    5.4736   -1.7150 H   0  0  0  0  0  0  0  0  0  0  0  0
    0.1317    3.5680   -1.9507 C   0  0  0  0  0  0  0  0  0  0  0  0
   -0.2868    3.8234   -2.9361 H   0  0  0  0  0  0  0  0  0  0  0  0
   -0.1455    2.3189   -1.3783 C   0  0  0  0  0  0  0  0  0  0  0  0
   -0.7766    1.5839   -1.9030 H   0  0  0  0  0  0  0  0  0  0  0  0
  1 16  1  1  0  0  0
  2  4  1  0  0  0  0
  3 10  1  0  0  0  0
  3  1  1  0  0  0  0
  4  3  2  0  0  0  0
  5  7  2  0  0  0  0
  5  4  1  0  0  0  0
  6  5  1  0  0  0  0
  7  9  1  0  0  0  0
  8  7  1  0  0  0  0
  9 12  1  0  0  0  0
  9 10  2  0  0  0  0
 10 11  1  0  0  0  0
 12 15  1  0  0  0  0
 12 14  1  0  0  0  0
 13 12  1  0  0  0  0
 16 17  1  0  0  0  0
 16 18  1  0  0  0  0
 16 22  1  0  0  0  0
 18 20  1  0  0  0  0
 19 18  1  0  0  0  0
 21 18  1  0  0  0  0
 22 25  1  0  0  0  0
 23 22  1  0  0  0  0
 24 22  1  0  0  0  0
 26  1  1  0  0  0  0
 26 27  1  0  0  0  0
 27 28  1  0  0  0  0
 29 30  1  0  0  0  0
 29 27  2  0  0  0  0
 31 29  1  0  0  0  0
 32 31  1  0  0  0  0
 33 35  1  0  0  0  0
 33 31  2  0  0  0  0
 34 33  1  0  0  0  0
 35 26  2  0  0  0  0
 36 35  1  0  0  0  0
M  CHG  1   2  -1
M  END
