1,8
q = -1.0

 40 39  0  0  0  0  0  0  0  0999 V2000
   -2.7467   -0.2054   -0.2906 P   0  0  0  0  0  0  0  0  0  0  0  0
   -0.8718   -2.4752    1.8512 F   0  0  0  0  0  0  0  0  0  0  0  0
   -1.3188   -1.7646    3.8573 F   0  0  0  0  0  0  0  0  0  0  0  0
    0.6430   -1.3894    2.9675 F   0  0  0  0  0  0  0  0  0  0  0  0
   -2.2363    0.7261    4.1419 F   0  0  0  0  0  0  0  0  0  0  0  0
   -0.0831    1.0207    3.9373 F   0  0  0  0  0  0  0  0  0  0  0  0
   -1.4641    2.2050    2.7459 F   0  0  0  0  0  0  0  0  0  0  0  0
   -0.3082    0.3933    1.1730 O   0  0  0  0  0  1  0  0  0  0  0  0
   -2.6572   -0.3256    1.5727 C   0  0  0  0  0  0  0  0  0  0  0  0
   -3.3597    0.4068    2.0106 H   0  0  0  0  0  0  0  0  0  0  0  0
   -3.0283   -1.3200    1.8813 H   0  0  0  0  0  0  0  0  0  0  0  0
   -1.1944   -0.0902    2.0984 C   0  0  0  0  0  0  0  0  0  0  0  0
   -0.6686   -1.4404    2.7089 C   0  0  0  0  0  0  0  0  0  0  0  0
   -1.2391    0.9710    3.2538 C   0  0  0  0  0  0  0  0  0  0  0  0
   -3.7962    1.3597   -0.6323 C   0  0  0  0  0  0  0  0  0  0  0  0
   -3.1583    2.4642    0.2366 C   0  0  0  0  0  0  0  0  0  0  0  0
   -3.4325    3.4596   -0.1711 H   0  0  0  0  0  0  0  0  0  0  0  0
   -2.0557    2.3964    0.2870 H   0  0  0  0  0  0  0  0  0  0  0  0
   -3.5252    2.4249    1.2791 H   0  0  0  0  0  0  0  0  0  0  0  0
   -3.6481    1.6994   -2.1298 C   0  0  0  0  0  0  0  0  0  0  0  0
   -3.9672    2.7478   -2.3088 H   0  0  0  0  0  0  0  0  0  0  0  0
   -4.2734    1.0501   -2.7688 H   0  0  0  0  0  0  0  0  0  0  0  0
   -2.6033    1.5858   -2.4804 H   0  0  0  0  0  0  0  0  0  0  0  0
   -5.2853    1.2595   -0.2703 C   0  0  0  0  0  0  0  0  0  0  0  0
   -5.7503    2.2624   -0.3832 H   0  0  0  0  0  0  0  0  0  0  0  0
   -5.4396    0.9453    0.7816 H   0  0  0  0  0  0  0  0  0  0  0  0
   -5.8403    0.5666   -0.9310 H   0  0  0  0  0  0  0  0  0  0  0  0
   -3.6966   -1.7780   -0.8474 C   0  0  0  0  0  0  0  0  0  0  0  0
   -4.1320   -1.6076   -2.3143 C   0  0  0  0  0  0  0  0  0  0  0  0
   -4.5223   -2.5782   -2.6860 H   0  0  0  0  0  0  0  0  0  0  0  0
   -3.2864   -1.3199   -2.9698 H   0  0  0  0  0  0  0  0  0  0  0  0
   -4.9427   -0.8638   -2.4336 H   0  0  0  0  0  0  0  0  0  0  0  0
   -4.9239   -2.0671    0.0382 C   0  0  0  0  0  0  0  0  0  0  0  0
   -5.4288   -2.9792   -0.3443 H   0  0  0  0  0  0  0  0  0  0  0  0
   -5.6681   -1.2521    0.0365 H   0  0  0  0  0  0  0  0  0  0  0  0
   -4.6411   -2.2761    1.0886 H   0  0  0  0  0  0  0  0  0  0  0  0
   -2.7494   -2.9901   -0.7593 C   0  0  0  0  0  0  0  0  0  0  0  0
   -3.3268   -3.9002   -1.0264 H   0  0  0  0  0  0  0  0  0  0  0  0
   -2.3401   -3.1368    0.2569 H   0  0  0  0  0  0  0  0  0  0  0  0
   -1.8954   -2.9122   -1.4571 H   0  0  0  0  0  0  0  0  0  0  0  0
  1  9  1  0  0  0  0
  2 13  1  0  0  0  0
  7 14  1  0  0  0  0
  8 12  1  0  0  0  0
  9 11  1  0  0  0  0
  9 10  1  0  0  0  0
  9 12  1  0  0  0  0
 12 13  1  0  0  0  0
 12 14  1  0  0  0  0
 13  4  1  0  0  0  0
 13  3  1  0  0  0  0
 14  6  1  0  0  0  0
 14  5  1  0  0  0  0
 15  1  1  0  0  0  0
 15 24  1  0  0  0  0
 15 16  1  0  0  0  0
 16 18  1  0  0  0  0
 16 19  1  0  0  0  0
 17 16  1  0  0  0  0
 20 15  1  0  0  0  0
 21 20  1  0  0  0  0
 22 20  1  0  0  0  0
 23 20  1  0  0  0  0
 24 26  1  0  0  0  0
 25 24  1  0  0  0  0
 27 24  1  0  0  0  0
 28 37  1  0  0  0  0
 28  1  1  0  0  0  0
 28 33  1  0  0  0  0
 29 28  1  0  0  0  0
 30 29  1  0  0  0  0
 31 29  1  0  0  0  0
 32 29  1  0  0  0  0
 33 36  1  0  0  0  0
 34 33  1  0  0  0  0
 35 33  1  0  0  0  0
 37 39  1  0  0  0  0
 38 37  1  0  0  0  0
 40 37  1  0  0  0  0
M  END
