1,2
q = -1.0, confidence = 0.024

 49 51  0  0  0  0  0  0  0  0999 V2000
    0.5652    1.0612   -0.2324 P   0  0  0  0  0  0  0  0  0  0  0  0
   -0.3489   -1.7664   -0.4683 O   0  5  0  0  0  0  0  0  0  0  0  0
   -1.6336   -1.3625   -0.5430 C   0  0  0  0  0  0  0  0  0  0  0  0
   -2.6565   -2.2412   -0.1500 C   0  0  0  0  0  0  0  0  0  0  0  0
   -2.3788   -3.2464    0.1971 H   0  0  0  0  0  0  0  0  0  0  0  0
   -3.9939   -1.8280   -0.1907 C   0  0  0  0  0  0  0  0  0  0  0  0
   -4.7680   -2.5364    0.1326 H   0  0  0  0  0  0  0  0  0  0  0  0
   -4.3479   -0.5346   -0.6244 C   0  0  0  0  0  0  0  0  0  0  0  0
   -3.2997    0.3214   -1.0243 C   0  0  0  0  0  0  0  0  0  0  0  0
   -3.5360    1.3391   -1.3744 H   0  0  0  0  0  0  0  0  0  0  0  0
   -1.9471   -0.0544   -0.9942 C   0  0  0  0  0  0  0  0  0  0  0  0
   -0.8666    0.9078   -1.4186 C   0  0  0  0  0  0  0  0  0  0  0  0
   -1.2858    1.9149   -1.6140 H   0  0  0  0  0  0  0  0  0  0  0  0
   -0.3687    0.5681   -2.3530 H   0  0  0  0  0  0  0  0  0  0  0  0
   -0.0684    1.8705    1.2824 C   0  0  0  0  0  0  0  0  0  0  0  0
   -1.4324    2.1271    1.5176 C   0  0  0  0  0  0  0  0  0  0  0  0
   -2.1922    1.8411    0.7783 H   0  0  0  0  0  0  0  0  0  0  0  0
   -1.8339    2.7332    2.7192 C   0  0  0  0  0  0  0  0  0  0  0  0
   -2.9028    2.9275    2.8963 H   0  0  0  0  0  0  0  0  0  0  0  0
   -0.8824    3.0834    3.6878 C   0  0  0  0  0  0  0  0  0  0  0  0
   -1.2011    3.5563    4.6290 H   0  0  0  0  0  0  0  0  0  0  0  0
    0.4792    2.8226    3.4569 C   0  0  0  0  0  0  0  0  0  0  0  0
    1.2299    3.0879    4.2165 H   0  0  0  0  0  0  0  0  0  0  0  0
    0.8873    2.2152    2.2635 C   0  0  0  0  0  0  0  0  0  0  0  0
    1.9529    1.9975    2.0908 H   0  0  0  0  0  0  0  0  0  0  0  0
    1.5809    2.3909   -0.9980 C   0  0  0  0  0  0  0  0  0  0  0  0
    1.0754    3.7099   -0.9952 C   0  0  0  0  0  0  0  0  0  0  0  0
    0.1103    3.9284   -0.5116 H   0  0  0  0  0  0  0  0  0  0  0  0
    1.8079    4.7468   -1.5877 C   0  0  0  0  0  0  0  0  0  0  0  0
    1.4070    5.7717   -1.5807 H   0  0  0  0  0  0  0  0  0  0  0  0
    3.0537    4.4782   -2.1792 C   0  0  0  0  0  0  0  0  0  0  0  0
    3.6316    5.2939   -2.6398 H   0  0  0  0  0  0  0  0  0  0  0  0
    3.5625    3.1713   -2.1745 C   0  0  0  0  0  0  0  0  0  0  0  0
    4.5412    2.9569   -2.6294 H   0  0  0  0  0  0  0  0  0  0  0  0
    2.8326    2.1259   -1.5868 C   0  0  0  0  0  0  0  0  0  0  0  0
    3.2380    1.1056   -1.5849 H   0  0  0  0  0  0  0  0  0  0  0  0
   -5.7991   -0.0258   -0.6560 C   0  0  0  0  0  0  0  0  0  0  0  0
   -5.9225    1.1952    0.2854 C   0  0  0  0  0  0  0  0  0  0  0  0
   -5.2585    2.0258   -0.0277 H   0  0  0  0  0  0  0  0  0  0  0  0
   -5.6541    0.9208    1.3258 H   0  0  0  0  0  0  0  0  0  0  0  0
   -6.9630    1.5806    0.2871 H   0  0  0  0  0  0  0  0  0  0  0  0
   -6.1667    0.3928   -2.0976 C   0  0  0  0  0  0  0  0  0  0  0  0
   -5.5054    1.1973   -2.4764 H   0  0  0  0  0  0  0  0  0  0  0  0
   -7.2096    0.7695   -2.1368 H   0  0  0  0  0  0  0  0  0  0  0  0
   -6.0842   -0.4669   -2.7927 H   0  0  0  0  0  0  0  0  0  0  0  0
   -6.7976   -1.0998   -0.1916 C   0  0  0  0  0  0  0  0  0  0  0  0
   -6.6047   -1.4195    0.8522 H   0  0  0  0  0  0  0  0  0  0  0  0
   -6.7676   -1.9982   -0.8404 H   0  0  0  0  0  0  0  0  0  0  0  0
   -7.8288   -0.6950   -0.2303 H   0  0  0  0  0  0  0  0  0  0  0  0
  1 15  1  0  0  0  0
  3  2  1  0  0  0  0
  3  4  1  0  0  0  0
  4  5  1  0  0  0  0
  6  4  2  0  0  0  0
  6  7  1  0  0  0  0
  8  6  1  0  0  0  0
  9 11  1  0  0  0  0
  9  8  2  0  0  0  0
 10  9  1  0  0  0  0
 11  3  2  0  0  0  0
 12 11  1  0  0  0  0
 12  1  1  0  0  0  0
 13 12  1  0  0  0  0
 14 12  1  0  0  0  0
 15 16  2  0  0  0  0
 15 24  1  0  0  0  0
 16 18  1  0  0  0  0
 17 16  1  0  0  0  0
 18 19  1  0  0  0  0
 18 20  2  0  0  0  0
 20 21  1  0  0  0  0
 22 20  1  0  0  0  0
 22 23  1  0  0  0  0
 24 22  2  0  0  0  0
 25 24  1  0  0  0  0
 26 27  1  0  0  0  0
 26  1  1  0  0  0  0
 27 28  1  0  0  0  0
 29 30  1  0  0  0  0
 29 27  2  0  0  0  0
 31 33  2  0  0  0  0
 31 29  1  0  0  0  0
 32 31  1  0  0  0  0
 33 35  1  0  0  0  0
 34 33  1  0  0  0  0
 35 36  1  0  0  0  0
 35 26  2  0  0  0  0
 37  8  1  0  0  0  0
 37 46  1  0  0  0  0
 37 38  1  0  0  0  0
 38 41  1  0  0  0  0
 38 40  1  0  0  0  0
 39 38  1  0  0  0  0
 42 37  1  0  0  0  0
 43 42  1  0  0  0  0
 44 42  1  0  0  0  0
 45 42  1  0  0  0  0
 46 47  1  0  0  0  0
 48 46  1  0  0  0  0
 49 46  1  0  0  0  0
M  CHG  1   2  -1
M  END
