1,8
q = -1.0

 36 37  0  0  0  0  0  0  0  0999 V2000
   -2.1333   -0.4184    0.2847 P   0  0  0  0  0  0  0  0  0  0  0  0
    0.8314   -4.5475    0.2589 F   0  0  0  0  0  0  0  0  0  0  0  0
   -1.2935   -5.0505    0.2944 F   0  0  0  0  0  0  0  0  0  0  0  0
   -0.3962   -3.9467    1.9514 F   0  0  0  0  0  0  0  0  0  0  0  0
   -0.9358   -1.6853   -2.2092 F   0  0  0  0  0  0  0  0  0  0  0  0
   -1.7519   -3.7026   -2.0498 F   0  0  0  0  0  0  0  0  0  0  0  0
    0.4086   -3.3955   -2.1079 F   0  0  0  0  0  0  0  0  0  0  0  0
    0.2821   -1.8624    0.2987 O   0  0  0  0  0  1  0  0  0  0  0  0
   -2.1241   -2.2675    0.4110 C   0  0  0  0  0  0  0  0  0  0  0  0
   -0.7232   -2.7312   -0.0742 C   0  0  0  0  0  0  0  0  0  0  0  0
   -0.3859   -4.0941    0.6046 C   0  0  0  0  0  0  0  0  0  0  0  0
   -0.7456   -2.8947   -1.6286 C   0  0  0  0  0  0  0  0  0  0  0  0
   -3.0421    0.1886    1.7539 C   0  0  0  0  0  0  0  0  0  0  0  0
   -2.4815    1.2369    2.5111 C   0  0  0  0  0  0  0  0  0  0  0  0
   -3.1671    1.7190    3.6375 C   0  0  0  0  0  0  0  0  0  0  0  0
   -4.3969    1.1569    4.0131 C   0  0  0  0  0  0  0  0  0  0  0  0
   -4.9559    0.1138    3.2548 C   0  0  0  0  0  0  0  0  0  0  0  0
   -4.2849   -0.3668    2.1218 C   0  0  0  0  0  0  0  0  0  0  0  0
   -3.1526    0.1245   -1.1306 C   0  0  0  0  0  0  0  0  0  0  0  0
   -3.0405    1.4897   -1.4733 C   0  0  0  0  0  0  0  0  0  0  0  0
   -3.7838    1.9991   -2.5458 C   0  0  0  0  0  0  0  0  0  0  0  0
   -4.6340    1.1561   -3.2811 C   0  0  0  0  0  0  0  0  0  0  0  0
   -4.7340   -0.2036   -2.9471 C   0  0  0  0  0  0  0  0  0  0  0  0
   -3.9927   -0.7242   -1.8751 C   0  0  0  0  0  0  0  0  0  0  0  0
   -1.5241    1.6799    2.1940 H   0  0  0  0  0  0  0  0  0  0  0  0
   -2.7325    2.5414    4.2257 H   0  0  0  0  0  0  0  0  0  0  0  0
   -4.9276    1.5349    4.9002 H   0  0  0  0  0  0  0  0  0  0  0  0
   -5.9233   -0.3237    3.5449 H   0  0  0  0  0  0  0  0  0  0  0  0
   -4.7337   -1.1726    1.5195 H   0  0  0  0  0  0  0  0  0  0  0  0
   -2.3463    2.1331   -0.9104 H   0  0  0  0  0  0  0  0  0  0  0  0
   -3.6852    3.0612   -2.8161 H   0  0  0  0  0  0  0  0  0  0  0  0
   -5.2139    1.5582   -4.1257 H   0  0  0  0  0  0  0  0  0  0  0  0
   -5.3892   -0.8693   -3.5293 H   0  0  0  0  0  0  0  0  0  0  0  0
   -4.0626   -1.7963   -1.6390 H   0  0  0  0  0  0  0  0  0  0  0  0
   -2.1937   -2.4809    1.4948 H   0  0  0  0  0  0  0  0  0  0  0  0
   -2.9618   -2.7789   -0.0991 H   0  0  0  0  0  0  0  0  0  0  0  0
  1  9  1  0  0  0  0
  1 13  1  0  0  0  0
  2 11  1  0  0  0  0
  3 11  1  0  0  0  0
  5 12  1  0  0  0  0
  6 12  1  0  0  0  0
  7 12  1  0  0  0  0
  9 35  1  0  0  0  0
 10  8  1  0  0  0  0
 10  9  1  0  0  0  0
 10 11  1  0  0  0  0
 11  4  1  0  0  0  0
 12 10  1  0  0  0  0
 13 18  2  0  0  0  0
 13 14  1  0  0  0  0
 14 15  2  0  0  0  0
 15 16  1  0  0  0  0
 15 26  1  0  0  0  0
 16 27  1  0  0  0  0
 17 28  1  0  0  0  0
 17 16  2  0  0  0  0
 18 17  1  0  0  0  0
 19  1  1  0  0  0  0
 20 19  1  0  0  0  0
 20 30  1  0  0  0  0
 21 20  2  0  0  0  0
 22 23  2  0  0  0  0
 22 21  1  0  0  0  0
 23 24  1  0  0  0  0
 24 34  1  0  0  0  0
 24 19  2  0  0  0  0
 25 14  1  0  0  0  0
 29 18  1  0  0  0  0
 31 21  1  0  0  0  0
 32 22  1  0  0  0  0
 33 23  1  0  0  0  0
 36  9  1  0  0  0  0
M  END
