1,2
q = 0.0, confidence = 0.994

 33 35  0  0  1  0  0  0  0  0999 V2000
   -0.5070   -0.1876    0.0462 P   0  0  0  0  0  0  0  0  0  0  0  0
    1.9308    1.5084    0.1704 O   0  0  0  0  0  1  0  0  0  0  0  0
   -0.8759    1.3493   -0.7708 N   0  0  0  0  0  0  0  0  0  0  0  0
    1.9832    3.8579   -0.1030 C   0  0  0  0  0  0  0  0  0  0  0  0
    1.3411    4.6257    0.3700 H   0  0  0  0  0  0  0  0  0  0  0  0
    2.2440    4.2157   -1.1207 H   0  0  0  0  0  0  0  0  0  0  0  0
    2.9164    3.7319    0.4736 H   0  0  0  0  0  0  0  0  0  0  0  0
   -1.3312    0.1042    1.5525 N   0  0  0  0  0  0  0  0  0  0  0  0
    1.2860    2.5228   -0.1953 C   0  0  1  0  0  3  0  0  0  0  0  0
   -1.6431   -1.2202   -0.7606 N   0  0  0  0  0  0  0  0  0  0  0  0
   -0.0600    2.4910   -0.7294 C   0  0  0  0  0  0  0  0  0  0  0  0
   -0.7650    3.5268   -1.3727 C   0  0  0  0  0  0  0  0  0  0  0  0
   -0.3913    4.5454   -1.5246 H   0  0  0  0  0  0  0  0  0  0  0  0
   -1.9987    3.0028   -1.8195 C   0  0  0  0  0  0  0  0  0  0  0  0
   -2.7786    3.5299   -2.3797 H   0  0  0  0  0  0  0  0  0  0  0  0
   -2.0420    1.6617   -1.4312 C   0  0  0  0  0  0  0  0  0  0  0  0
   -2.8191    0.9012   -1.5772 H   0  0  0  0  0  0  0  0  0  0  0  0
   -2.4352    0.9175    1.8267 C   0  0  0  0  0  0  0  0  0  0  0  0
   -2.8576    1.5748    1.0604 H   0  0  0  0  0  0  0  0  0  0  0  0
   -2.7832    0.7234    3.1515 C   0  0  0  0  0  0  0  0  0  0  0  0
   -3.6003    1.2346    3.6741 H   0  0  0  0  0  0  0  0  0  0  0  0
   -1.8730   -0.2348    3.7089 C   0  0  0  0  0  0  0  0  0  0  0  0
   -1.8580   -0.6055    4.7399 H   0  0  0  0  0  0  0  0  0  0  0  0
   -0.9883   -0.5984    2.7117 C   0  0  0  0  0  0  0  0  0  0  0  0
   -0.1274   -1.2766    2.7058 H   0  0  0  0  0  0  0  0  0  0  0  0
   -2.9747   -1.4844   -0.4205 C   0  0  0  0  0  0  0  0  0  0  0  0
   -3.3919   -1.1281    0.5271 H   0  0  0  0  0  0  0  0  0  0  0  0
   -3.5232   -2.2438   -1.4383 C   0  0  0  0  0  0  0  0  0  0  0  0
   -4.5471   -2.6349   -1.4558 H   0  0  0  0  0  0  0  0  0  0  0  0
   -2.5083   -2.4487   -2.4315 C   0  0  0  0  0  0  0  0  0  0  0  0
   -2.6049   -3.0180   -3.3628 H   0  0  0  0  0  0  0  0  0  0  0  0
   -1.3613   -1.8132   -1.9945 C   0  0  0  0  0  0  0  0  0  0  0  0
   -0.3607   -1.7239   -2.4327 H   0  0  0  0  0  0  0  0  0  0  0  0
  1  8  1  0  0  0  0
  3 11  1  0  0  0  0
  3  1  1  0  0  0  0
  4  5  1  0  0  0  0
  4  7  1  0  0  0  0
  6  4  1  0  0  0  0
  8 18  1  0  0  0  0
  8 24  1  0  0  0  0
  9  4  1  0  0  0  0
  9  2  1  6  0  0  0
 10 26  1  0  0  0  0
 10  1  1  0  0  0  0
 11  9  1  0  0  0  0
 12 11  2  0  0  0  0
 13 12  1  0  0  0  0
 14 16  2  0  0  0  0
 14 12  1  0  0  0  0
 15 14  1  0  0  0  0
 16  3  1  0  0  0  0
 17 16  1  0  0  0  0
 18 20  2  0  0  0  0
 19 18  1  0  0  0  0
 20 21  1  0  0  0  0
 20 22  1  0  0  0  0
 22 23  1  0  0  0  0
 24 22  2  0  0  0  0
 25 24  1  0  0  0  0
 26 27  1  0  0  0  0
 28 26  2  0  0  0  0
 29 28  1  0  0  0  0
 30 32  2  0  0  0  0
 30 28  1  0  0  0  0
 31 30  1  0  0  0  0
 32 10  1  0  0  0  0
 33 32  1  0  0  0  0
M  END
