1,2
q = 0.0, confidence = 1.0

 42 44  0  0  1  0  0  0  0  0999 V2000
    0.8076    0.7860   -0.1213 P   0  0  2  0  0  0  0  0  0  0  0  0
    0.7912   -2.3242    0.3383 O   0  0  0  0  0  1  0  0  0  0  0  0
    2.7643   -3.4287    0.3691 N   0  0  0  0  0  0  0  0  0  0  0  0
    2.4242    0.1867    0.6335 C   0  0  1  0  0  0  0  0  0  0  0  0
    2.7495   -1.0379   -0.3018 C   0  0  2  0  0  0  0  0  0  0  0  0
    2.3471   -0.5722   -1.7462 C   0  0  0  0  0  0  0  0  0  0  0  0
    1.9338    0.9269   -1.6187 C   0  0  2  0  0  0  0  0  0  0  0  0
    3.1196    1.7021   -1.0523 C   0  0  0  0  0  0  0  0  0  0  0  0
    3.8708    2.6789   -1.8977 C   0  0  0  0  0  0  0  0  0  0  0  0
    3.3831    1.2972    0.2242 C   0  0  0  0  0  0  0  0  0  0  0  0
    4.4608    1.7509    1.1530 C   0  0  0  0  0  0  0  0  0  0  0  0
    0.3991    2.4153    0.5780 C   0  0  0  0  0  0  0  0  0  0  0  0
   -0.3648    2.4178    1.7646 C   0  0  0  0  0  0  0  0  0  0  0  0
   -0.7371    3.6318    2.3568 C   0  0  0  0  0  0  0  0  0  0  0  0
   -0.3705    4.8476    1.7571 C   0  0  0  0  0  0  0  0  0  0  0  0
    0.3720    4.8482    0.5656 C   0  0  0  0  0  0  0  0  0  0  0  0
    0.7612    3.6370   -0.0245 C   0  0  0  0  0  0  0  0  0  0  0  0
    2.0380   -2.3059    0.1436 C   0  0  2  0  0  3  0  0  0  0  0  0
    4.1920   -3.5673    0.0869 C   0  0  0  0  0  0  0  0  0  0  0  0
    2.1131   -4.6102    0.9308 C   0  0  0  0  0  0  0  0  0  0  0  0
    2.4046   -0.0589    1.7103 H   0  0  0  0  0  0  0  0  0  0  0  0
    3.8416   -1.1817   -0.2476 H   0  0  0  0  0  0  0  0  0  0  0  0
    3.1978   -0.6724   -2.4478 H   0  0  0  0  0  0  0  0  0  0  0  0
    1.5062   -1.1756   -2.1441 H   0  0  0  0  0  0  0  0  0  0  0  0
    1.4831    1.3369   -2.5407 H   0  0  0  0  0  0  0  0  0  0  0  0
    4.6968    3.1642   -1.3451 H   0  0  0  0  0  0  0  0  0  0  0  0
    3.2043    3.4785   -2.2875 H   0  0  0  0  0  0  0  0  0  0  0  0
    4.3057    2.1807   -2.7912 H   0  0  0  0  0  0  0  0  0  0  0  0
    5.0992    2.5348    0.7045 H   0  0  0  0  0  0  0  0  0  0  0  0
    5.1192    0.9083    1.4569 H   0  0  0  0  0  0  0  0  0  0  0  0
    4.0229    2.1601    2.0888 H   0  0  0  0  0  0  0  0  0  0  0  0
   -0.6845    1.4635    2.2122 H   0  0  0  0  0  0  0  0  0  0  0  0
   -1.3287    3.6287    3.2842 H   0  0  0  0  0  0  0  0  0  0  0  0
   -0.6737    5.8005    2.2160 H   0  0  0  0  0  0  0  0  0  0  0  0
    0.6499    5.7999    0.0888 H   0  0  0  0  0  0  0  0  0  0  0  0
    1.3389    3.6487   -0.9586 H   0  0  0  0  0  0  0  0  0  0  0  0
    4.8185   -3.2710    0.9555 H   0  0  0  0  0  0  0  0  0  0  0  0
    4.4946   -2.9800   -0.7978 H   0  0  0  0  0  0  0  0  0  0  0  0
    4.4027   -4.6298   -0.1390 H   0  0  0  0  0  0  0  0  0  0  0  0
    1.1141   -4.3333    1.3059 H   0  0  0  0  0  0  0  0  0  0  0  0
    2.7244   -5.0081    1.7654 H   0  0  0  0  0  0  0  0  0  0  0  0
    2.0067   -5.4050    0.1624 H   0  0  0  0  0  0  0  0  0  0  0  0
  1 12  1  1  0  0  0
  1  4  1  0  0  0  0
  3 20  1  0  0  0  0
  4 21  1  1  0  0  0
  5 22  1  1  0  0  0
  5 18  1  0  0  0  0
  5  4  1  0  0  0  0
  6  7  1  0  0  0  0
  6  5  1  0  0  0  0
  7 25  1  6  0  0  0
  7  8  1  0  0  0  0
  7  1  1  0  0  0  0
  8 10  2  0  0  0  0
  9 26  1  0  0  0  0
  9  8  1  0  0  0  0
 10  4  1  0  0  0  0
 10 11  1  0  0  0  0
 11 30  1  0  0  0  0
 11 31  1  0  0  0  0
 12 13  1  0  0  0  0
 13 32  1  0  0  0  0
 13 14  2  0  0  0  0
 14 33  1  0  0  0  0
 15 34  1  0  0  0  0
 15 14  1  0  0  0  0
 16 15  2  0  0  0  0
 17 16  1  0  0  0  0
 17 12  2  0  0  0  0
 18  2  1  1  0  0  0
 18  3  1  0  0  0  0
 19  3  1  0  0  0  0
 19 37  1  0  0  0  0
 20 40  1  0  0  0  0
 20 41  1  0  0  0  0
 23  6  1  0  0  0  0
 24  6  1  0  0  0  0
 27  9  1  0  0  0  0
 28  9  1  0  0  0  0
 29 11  1  0  0  0  0
 35 16  1  0  0  0  0
 36 17  1  0  0  0  0
 38 19  1  0  0  0  0
 39 19  1  0  0  0  0
 42 20  1  0  0  0  0
M  END
