1,2
q = -1.0

 36 38  0  0  0  0  0  0  0  0999 V2000
    1.1908    0.1179    0.0080 P   0  0  0  0  0  0  0  0  0  0  0  0
   -0.3256   -2.4090    0.3096 O   0  5  0  0  0  0  0  0  0  0  0  0
    0.5833   -4.4029   -0.0731 O   0  0  0  0  0  0  0  0  0  0  0  0
    1.6785    1.6747   -0.8384 C   0  0  0  0  0  0  0  0  0  0  0  0
    2.1944   -1.1620   -0.8541 C   0  0  0  0  0  0  0  0  0  0  0  0
    3.8646   -3.0370   -2.1377 C   0  0  0  0  0  0  0  0  0  0  0  0
    4.5082   -3.7767   -2.6382 H   0  0  0  0  0  0  0  0  0  0  0  0
    0.6223   -3.1719   -0.1520 C   0  0  0  0  0  0  0  0  0  0  0  0
    1.8456   -2.5376   -0.8313 C   0  0  0  0  0  0  0  0  0  0  0  0
    2.5372    2.6237   -0.2520 C   0  0  0  0  0  0  0  0  0  0  0  0
    2.9544    2.4416    0.7497 H   0  0  0  0  0  0  0  0  0  0  0  0
    1.9155    0.2611    1.6891 C   0  0  0  0  0  0  0  0  0  0  0  0
    1.1376    1.9157   -2.1191 C   0  0  0  0  0  0  0  0  0  0  0  0
    0.4422    1.1846   -2.5608 H   0  0  0  0  0  0  0  0  0  0  0  0
    1.1565    0.9165    2.6819 C   0  0  0  0  0  0  0  0  0  0  0  0
    0.1467    1.2844    2.4394 H   0  0  0  0  0  0  0  0  0  0  0  0
    4.2026   -1.6755   -2.1584 C   0  0  0  0  0  0  0  0  0  0  0  0
    5.1118   -1.3301   -2.6737 H   0  0  0  0  0  0  0  0  0  0  0  0
    2.7041   -3.4523   -1.4763 C   0  0  0  0  0  0  0  0  0  0  0  0
    2.4093   -4.5106   -1.4233 H   0  0  0  0  0  0  0  0  0  0  0  0
    2.3210    4.0370   -2.2220 C   0  0  0  0  0  0  0  0  0  0  0  0
    2.5688    4.9636   -2.7616 H   0  0  0  0  0  0  0  0  0  0  0  0
    1.4640    3.0894   -2.8090 C   0  0  0  0  0  0  0  0  0  0  0  0
    1.0372    3.2735   -3.8064 H   0  0  0  0  0  0  0  0  0  0  0  0
    3.3725   -0.7475   -1.5168 C   0  0  0  0  0  0  0  0  0  0  0  0
    3.6402    0.3190   -1.5345 H   0  0  0  0  0  0  0  0  0  0  0  0
    2.9594    0.5824    4.2796 C   0  0  0  0  0  0  0  0  0  0  0  0
    3.3669    0.7036    5.2948 H   0  0  0  0  0  0  0  0  0  0  0  0
    1.6831    1.0817    3.9705 C   0  0  0  0  0  0  0  0  0  0  0  0
    1.0872    1.5926    4.7418 H   0  0  0  0  0  0  0  0  0  0  0  0
    3.1927   -0.2433    2.0020 C   0  0  0  0  0  0  0  0  0  0  0  0
    3.7789   -0.7694    1.2338 H   0  0  0  0  0  0  0  0  0  0  0  0
    3.7097   -0.0822    3.2969 C   0  0  0  0  0  0  0  0  0  0  0  0
    4.7049   -0.4847    3.5397 H   0  0  0  0  0  0  0  0  0  0  0  0
    2.8541    3.8039   -0.9454 C   0  0  0  0  0  0  0  0  0  0  0  0
    3.5224    4.5453   -0.4817 H   0  0  0  0  0  0  0  0  0  0  0  0
  1 12  1  0  0  0  0
  4 10  1  0  0  0  0
  4  1  1  0  0  0  0
  5  9  1  0  0  0  0
  5  1  1  0  0  0  0
  6 19  1  0  0  0  0
  7  6  1  0  0  0  0
  8  3  2  0  0  0  0
  8  2  1  0  0  0  0
  9  8  1  0  0  0  0
 10 11  1  0  0  0  0
 12 31  2  0  0  0  0
 12 15  1  0  0  0  0
 13  4  2  0  0  0  0
 14 13  1  0  0  0  0
 15 29  2  0  0  0  0
 16 15  1  0  0  0  0
 17  6  2  0  0  0  0
 17 25  1  0  0  0  0
 18 17  1  0  0  0  0
 19 20  1  0  0  0  0
 19  9  2  0  0  0  0
 21 35  1  0  0  0  0
 22 21  1  0  0  0  0
 23 21  2  0  0  0  0
 23 13  1  0  0  0  0
 24 23  1  0  0  0  0
 25  5  2  0  0  0  0
 26 25  1  0  0  0  0
 27 28  1  0  0  0  0
 29 27  1  0  0  0  0
 29 30  1  0  0  0  0
 31 33  1  0  0  0  0
 32 31  1  0  0  0  0
 33 34  1  0  0  0  0
 33 27  2  0  0  0  0
 35 36  1  0  0  0  0
 35 10  2  0  0  0  0
M  CHG  1   2  -1
M  END
