1,3
q = -1.0

 41 41  0  0  0  0  0  0  0  0999 V2000
   -0.8877   -1.1476    0.1302 P   0  0  0  0  0  0  0  0  0  0  0  0
   -1.5922    2.2554   -0.4589 S   0  0  0  0  0  0  0  0  0  0  0  0
   -0.7707    1.8675    0.8144 O   0  0  0  0  0  1  0  0  0  0  0  0
   -2.2910    3.5395   -0.2338 O   0  0  0  0  0  1  0  0  0  0  0  0
   -0.7981    2.1198   -1.7170 O   0  0  0  0  0  1  0  0  0  0  0  0
   -2.5756   -0.4162   -0.2219 C   0  0  0  0  0  0  0  0  0  0  0  0
   -2.8492    0.9504   -0.4791 C   0  0  0  0  0  0  0  0  0  0  0  0
   -4.1559    1.4039   -0.7247 C   0  0  0  0  0  0  0  0  0  0  0  0
   -4.3003    2.4810   -0.8929 H   0  0  0  0  0  0  0  0  0  0  0  0
   -5.2330    0.5112   -0.7173 C   0  0  0  0  0  0  0  0  0  0  0  0
   -6.2531    0.8753   -0.9112 H   0  0  0  0  0  0  0  0  0  0  0  0
   -4.9972   -0.8406   -0.4364 C   0  0  0  0  0  0  0  0  0  0  0  0
   -5.8296   -1.5594   -0.4022 H   0  0  0  0  0  0  0  0  0  0  0  0
   -3.6913   -1.2856   -0.1891 C   0  0  0  0  0  0  0  0  0  0  0  0
   -3.5457   -2.3454    0.0418 H   0  0  0  0  0  0  0  0  0  0  0  0
   -0.6493   -2.4098   -1.2908 C   0  0  0  0  0  0  0  0  0  0  0  0
   -1.8470   -3.3204   -1.6105 C   0  0  0  0  0  0  0  0  0  0  0  0
   -2.7162   -2.7562   -1.9955 H   0  0  0  0  0  0  0  0  0  0  0  0
   -2.1684   -3.9401   -0.7523 H   0  0  0  0  0  0  0  0  0  0  0  0
   -1.5288   -4.0179   -2.4139 H   0  0  0  0  0  0  0  0  0  0  0  0
   -0.3789   -1.5240   -2.5226 C   0  0  0  0  0  0  0  0  0  0  0  0
   -0.2124   -2.1738   -3.4076 H   0  0  0  0  0  0  0  0  0  0  0  0
    0.5127   -0.8897   -2.3816 H   0  0  0  0  0  0  0  0  0  0  0  0
   -1.2352   -0.8544   -2.7401 H   0  0  0  0  0  0  0  0  0  0  0  0
    0.5678   -3.2925   -0.9621 C   0  0  0  0  0  0  0  0  0  0  0  0
    0.3424   -4.0163   -0.1538 H   0  0  0  0  0  0  0  0  0  0  0  0
    1.4554   -2.7028   -0.6726 H   0  0  0  0  0  0  0  0  0  0  0  0
    0.8352   -3.8795   -1.8657 H   0  0  0  0  0  0  0  0  0  0  0  0
   -1.1012   -1.9515    1.8674 C   0  0  0  0  0  0  0  0  0  0  0  0
   -1.8280   -3.3049    1.8991 C   0  0  0  0  0  0  0  0  0  0  0  0
   -1.8611   -3.6564    2.9523 H   0  0  0  0  0  0  0  0  0  0  0  0
   -1.2994   -4.0815    1.3133 H   0  0  0  0  0  0  0  0  0  0  0  0
   -2.8764   -3.2481    1.5526 H   0  0  0  0  0  0  0  0  0  0  0  0
   -1.8554   -0.9118    2.7194 C   0  0  0  0  0  0  0  0  0  0  0  0
   -2.9235   -0.8380    2.4388 H   0  0  0  0  0  0  0  0  0  0  0  0
   -1.4077    0.0981    2.6196 H   0  0  0  0  0  0  0  0  0  0  0  0
   -1.8009   -1.2145    3.7864 H   0  0  0  0  0  0  0  0  0  0  0  0
    0.3109   -2.1388    2.4495 C   0  0  0  0  0  0  0  0  0  0  0  0
    0.8300   -1.1627    2.5240 H   0  0  0  0  0  0  0  0  0  0  0  0
    0.9393   -2.8115    1.8355 H   0  0  0  0  0  0  0  0  0  0  0  0
    0.2258   -2.5783    3.4658 H   0  0  0  0  0  0  0  0  0  0  0  0
  1 29  1  0  0  0  0
  2  4  1  0  0  0  0
  2  3  1  0  0  0  0
  5  2  1  0  0  0  0
  6 14  1  0  0  0  0
  6  1  1  0  0  0  0
  7  2  1  0  0  0  0
  7  6  2  0  0  0  0
  8 10  2  0  0  0  0
  8  7  1  0  0  0  0
  9  8  1  0  0  0  0
 10 12  1  0  0  0  0
 11 10  1  0  0  0  0
 12 13  1  0  0  0  0
 12 14  2  0  0  0  0
 14 15  1  0  0  0  0
 16 25  1  0  0  0  0
 16  1  1  0  0  0  0
 17 16  1  0  0  0  0
 17 19  1  0  0  0  0
 18 17  1  0  0  0  0
 20 17  1  0  0  0  0
 21 23  1  0  0  0  0
 21 16  1  0  0  0  0
 22 21  1  0  0  0  0
 24 21  1  0  0  0  0
 25 27  1  0  0  0  0
 25 26  1  0  0  0  0
 28 25  1  0  0  0  0
 29 30  1  0  0  0  0
 29 38  1  0  0  0  0
 29 34  1  0  0  0  0
 30 31  1  0  0  0  0
 32 30  1  0  0  0  0
 33 30  1  0  0  0  0
 34 37  1  0  0  0  0
 35 34  1  0  0  0  0
 36 34  1  0  0  0  0
 38 39  1  0  0  0  0
 38 41  1  0  0  0  0
 40 38  1  0  0  0  0
M  END
