1,2
q = -1.0

 48 49  0  0  0  0  0  0  0  0999 V2000
    1.4310    0.1595    0.4537 P   0  0  2  0  0  0  0  0  0  0  0  0
   -1.3076    0.3252    0.0523 O   0  5  0  0  0  0  0  0  0  0  0  0
   -0.7941    1.5435   -0.0563 C   0  0  0  0  0  0  0  0  0  0  0  0
    1.1901    3.0256    0.0078 C   0  0  0  0  0  0  0  0  0  0  0  0
    2.2719    3.1661    0.1438 H   0  0  0  0  0  0  0  0  0  0  0  0
    3.2992    0.8522   -1.5901 C   0  0  0  0  0  0  0  0  0  0  0  0
    2.9522    1.8899   -1.4882 H   0  0  0  0  0  0  0  0  0  0  0  0
    2.7256   -0.1672   -0.8028 C   0  0  0  0  0  0  0  0  0  0  0  0
   -1.0120    3.9354   -0.4294 C   0  0  0  0  0  0  0  0  0  0  0  0
   -1.6305    4.8181   -0.6428 H   0  0  0  0  0  0  0  0  0  0  0  0
   -1.6345    2.6821   -0.3314 C   0  0  0  0  0  0  0  0  0  0  0  0
    3.1378   -1.5075   -0.9851 C   0  0  0  0  0  0  0  0  0  0  0  0
    2.6365   -2.3001   -0.4048 H   0  0  0  0  0  0  0  0  0  0  0  0
    0.6136    1.7431    0.1071 C   0  0  0  0  0  0  0  0  0  0  0  0
    4.1361   -1.8076   -1.9229 C   0  0  0  0  0  0  0  0  0  0  0  0
    4.4514   -2.8530   -2.0636 H   0  0  0  0  0  0  0  0  0  0  0  0
    4.2965    0.5401   -2.5270 C   0  0  0  0  0  0  0  0  0  0  0  0
    4.7379    1.3420   -3.1384 H   0  0  0  0  0  0  0  0  0  0  0  0
    0.3747    4.1255   -0.2660 C   0  0  0  0  0  0  0  0  0  0  0  0
    0.8076    5.1327   -0.3534 H   0  0  0  0  0  0  0  0  0  0  0  0
    4.7225   -0.7872   -2.6898 C   0  0  0  0  0  0  0  0  0  0  0  0
    5.5045   -1.0286   -3.4261 H   0  0  0  0  0  0  0  0  0  0  0  0
    2.3104    0.2589    2.1317 C   0  0  0  0  0  0  0  0  0  0  0  0
   -3.1551    2.5119   -0.4916 C   0  0  0  0  0  0  0  0  0  0  0  0
    1.1905    0.4150    3.1738 C   0  0  0  0  0  0  0  0  0  0  0  0
    0.5251   -0.4718    3.1746 H   0  0  0  0  0  0  0  0  0  0  0  0
    0.5690    1.3120    2.9753 H   0  0  0  0  0  0  0  0  0  0  0  0
    1.6337    0.5188    4.1869 H   0  0  0  0  0  0  0  0  0  0  0  0
   -3.4519    1.5159   -1.6380 C   0  0  0  0  0  0  0  0  0  0  0  0
   -4.5457    1.3465   -1.7278 H   0  0  0  0  0  0  0  0  0  0  0  0
   -2.9509    0.5467   -1.4633 H   0  0  0  0  0  0  0  0  0  0  0  0
   -3.0893    1.9219   -2.6043 H   0  0  0  0  0  0  0  0  0  0  0  0
   -3.7402    1.9949    0.8444 C   0  0  0  0  0  0  0  0  0  0  0  0
   -3.6315    2.7615    1.6382 H   0  0  0  0  0  0  0  0  0  0  0  0
   -3.2100    1.0851    1.1816 H   0  0  0  0  0  0  0  0  0  0  0  0
   -4.8207    1.7627    0.7362 H   0  0  0  0  0  0  0  0  0  0  0  0
    3.2730    1.4526    2.1832 C   0  0  0  0  0  0  0  0  0  0  0  0
    3.8466    1.4154    3.1342 H   0  0  0  0  0  0  0  0  0  0  0  0
    2.7356    2.4198    2.1554 H   0  0  0  0  0  0  0  0  0  0  0  0
    4.0061    1.4259    1.3509 H   0  0  0  0  0  0  0  0  0  0  0  0
   -3.8599    3.8376   -0.8297 C   0  0  0  0  0  0  0  0  0  0  0  0
   -4.9492    3.6590   -0.9365 H   0  0  0  0  0  0  0  0  0  0  0  0
   -3.4971    4.2672   -1.7856 H   0  0  0  0  0  0  0  0  0  0  0  0
   -3.7249    4.5983   -0.0341 H   0  0  0  0  0  0  0  0  0  0  0  0
    3.0722   -1.0578    2.3499 C   0  0  0  0  0  0  0  0  0  0  0  0
    3.9578   -1.1272    1.6874 H   0  0  0  0  0  0  0  0  0  0  0  0
    2.4185   -1.9277    2.1381 H   0  0  0  0  0  0  0  0  0  0  0  0
    3.4294   -1.1028    3.4006 H   0  0  0  0  0  0  0  0  0  0  0  0
  1 23  1  1  0  0  0
  3  2  1  0  0  0  0
  3 14  1  0  0  0  0
  4 14  2  0  0  0  0
  4  5  1  0  0  0  0
  6  7  1  0  0  0  0
  6  8  1  0  0  0  0
  8  1  1  0  0  0  0
  9 11  1  0  0  0  0
  9 19  2  0  0  0  0
 10  9  1  0  0  0  0
 11  3  2  0  0  0  0
 12  8  2  0  0  0  0
 12 13  1  0  0  0  0
 14  1  1  0  0  0  0
 15 12  1  0  0  0  0
 16 15  1  0  0  0  0
 17  6  2  0  0  0  0
 18 17  1  0  0  0  0
 19  4  1  0  0  0  0
 20 19  1  0  0  0  0
 21 17  1  0  0  0  0
 21 15  2  0  0  0  0
 22 21  1  0  0  0  0
 23 37  1  0  0  0  0
 23 45  1  0  0  0  0
 23 25  1  0  0  0  0
 24 11  1  0  0  0  0
 24 33  1  0  0  0  0
 25 26  1  0  0  0  0
 25 28  1  0  0  0  0
 27 25  1  0  0  0  0
 29 31  1  0  0  0  0
 29 24  1  0  0  0  0
 30 29  1  0  0  0  0
 32 29  1  0  0  0  0
 33 35  1  0  0  0  0
 33 34  1  0  0  0  0
 36 33  1  0  0  0  0
 37 38  1  0  0  0  0
 39 37  1  0  0  0  0
 40 37  1  0  0  0  0
 41 24  1  0  0  0  0
 41 44  1  0  0  0  0
 42 41  1  0  0  0  0
 43 41  1  0  0  0  0
 45 48  1  0  0  0  0
 46 45  1  0  0  0  0
 47 45  1  0  0  0  0
M  CHG  1   2  -1
M  END
