1,2
q = -1.0, confidence = 0.002

 46 48  0  0  0  0  0  0  0  0999 V2000
    1.2853   -0.0283    0.0626 P   0  0  0  0  0  0  0  0  0  0  0  0
   -1.4751    0.3592    0.1475 O   0  5  0  0  0  0  0  0  0  0  0  0
    0.5366    1.6143   -0.0777 C   0  0  0  0  0  0  0  0  0  0  0  0
    1.8943    0.3708   -2.6584 C   0  0  0  0  0  0  0  0  0  0  0  0
    1.1258    1.1579   -2.6180 H   0  0  0  0  0  0  0  0  0  0  0  0
    2.2257   -0.3334   -1.4828 C   0  0  0  0  0  0  0  0  0  0  0  0
   -0.8918    1.5297   -0.0278 C   0  0  0  0  0  0  0  0  0  0  0  0
    1.2222    2.8323   -0.2281 C   0  0  0  0  0  0  0  0  0  0  0  0
    2.3235    2.8502   -0.2452 H   0  0  0  0  0  0  0  0  0  0  0  0
    2.2066   -0.3794    2.6734 C   0  0  0  0  0  0  0  0  0  0  0  0
    1.2058   -0.8082    2.8404 H   0  0  0  0  0  0  0  0  0  0  0  0
   -0.9268    3.9441   -0.3387 C   0  0  0  0  0  0  0  0  0  0  0  0
   -1.4830    4.8853   -0.4517 H   0  0  0  0  0  0  0  0  0  0  0  0
    3.8455    0.5815    1.1477 C   0  0  0  0  0  0  0  0  0  0  0  0
    4.1347    0.8999    0.1344 H   0  0  0  0  0  0  0  0  0  0  0  0
    4.7581    0.6962    2.2071 C   0  0  0  0  0  0  0  0  0  0  0  0
    5.7592    1.1151    2.0224 H   0  0  0  0  0  0  0  0  0  0  0  0
    3.2119   -1.3422   -1.5328 C   0  0  0  0  0  0  0  0  0  0  0  0
    3.4765   -1.8979   -0.6207 H   0  0  0  0  0  0  0  0  0  0  0  0
    0.4834    4.0090   -0.3602 C   0  0  0  0  0  0  0  0  0  0  0  0
    0.9884    4.9785   -0.4820 H   0  0  0  0  0  0  0  0  0  0  0  0
    2.5610    0.0476    1.3780 C   0  0  0  0  0  0  0  0  0  0  0  0
    3.8621   -1.6325   -2.7405 C   0  0  0  0  0  0  0  0  0  0  0  0
    4.6341   -2.4167   -2.7691 H   0  0  0  0  0  0  0  0  0  0  0  0
   -1.6477    2.7510   -0.1794 C   0  0  0  0  0  0  0  0  0  0  0  0
    3.5313   -0.9261   -3.9088 C   0  0  0  0  0  0  0  0  0  0  0  0
    4.0442   -1.1546   -4.8555 H   0  0  0  0  0  0  0  0  0  0  0  0
    4.3978    0.2761    3.4978 C   0  0  0  0  0  0  0  0  0  0  0  0
    5.1172    0.3647    4.3262 H   0  0  0  0  0  0  0  0  0  0  0  0
    3.1217   -0.2627    3.7293 C   0  0  0  0  0  0  0  0  0  0  0  0
    2.8390   -0.5996    4.7383 H   0  0  0  0  0  0  0  0  0  0  0  0
   -3.1858    2.7219   -0.1521 C   0  0  0  0  0  0  0  0  0  0  0  0
    2.5470    0.0741   -3.8643 C   0  0  0  0  0  0  0  0  0  0  0  0
    2.2856    0.6328   -4.7760 H   0  0  0  0  0  0  0  0  0  0  0  0
   -3.8015    4.1113   -0.3930 C   0  0  0  0  0  0  0  0  0  0  0  0
   -3.5130    4.5263   -1.3802 H   0  0  0  0  0  0  0  0  0  0  0  0
   -3.5067    4.8407    0.3887 H   0  0  0  0  0  0  0  0  0  0  0  0
   -4.9077    4.0332   -0.3737 H   0  0  0  0  0  0  0  0  0  0  0  0
   -3.7067    1.7719   -1.2567 C   0  0  0  0  0  0  0  0  0  0  0  0
   -3.2847    0.7577   -1.1319 H   0  0  0  0  0  0  0  0  0  0  0  0
   -3.4192    2.1495   -2.2594 H   0  0  0  0  0  0  0  0  0  0  0  0
   -4.8149    1.7093   -1.2199 H   0  0  0  0  0  0  0  0  0  0  0  0
   -3.6544    2.2289    1.2370 C   0  0  0  0  0  0  0  0  0  0  0  0
   -3.2105    1.2434    1.4674 H   0  0  0  0  0  0  0  0  0  0  0  0
   -4.7609    2.1383    1.2665 H   0  0  0  0  0  0  0  0  0  0  0  0
   -3.3451    2.9409    2.0290 H   0  0  0  0  0  0  0  0  0  0  0  0
  1 22  1  0  0  0  0
  3  7  1  0  0  0  0
  3  1  1  0  0  0  0
  4  5  1  0  0  0  0
  4  6  1  0  0  0  0
  6  1  1  0  0  0  0
  7  2  1  0  0  0  0
  8  3  2  0  0  0  0
  9  8  1  0  0  0  0
 10 11  1  0  0  0  0
 10 30  1  0  0  0  0
 12 25  1  0  0  0  0
 13 12  1  0  0  0  0
 14 22  1  0  0  0  0
 14 16  2  0  0  0  0
 15 14  1  0  0  0  0
 16 28  1  0  0  0  0
 17 16  1  0  0  0  0
 18  6  2  0  0  0  0
 18 19  1  0  0  0  0
 20 12  2  0  0  0  0
 20  8  1  0  0  0  0
 21 20  1  0  0  0  0
 22 10  2  0  0  0  0
 23 18  1  0  0  0  0
 24 23  1  0  0  0  0
 25 32  1  0  0  0  0
 25  7  2  0  0  0  0
 26 33  1  0  0  0  0
 26 23  2  0  0  0  0
 27 26  1  0  0  0  0
 28 30  2  0  0  0  0
 28 29  1  0  0  0  0
 30 31  1  0  0  0  0
 32 43  1  0  0  0  0
 33  4  2  0  0  0  0
 34 33  1  0  0  0  0
 35 38  1  0  0  0  0
 35 32  1  0  0  0  0
 35 37  1  0  0  0  0
 36 35  1  0  0  0  0
 39 42  1  0  0  0  0
 39 40  1  0  0  0  0
 39 32  1  0  0  0  0
 41 39  1  0  0  0  0
 43 45  1  0  0  0  0
 43 44  1  0  0  0  0
 43 46  1  0  0  0  0
M  CHG  1   2  -1
M  END
