1,2
q = -1.0

 44 47  0  0  0  0  0  0  0  0999 V2000
   -0.5599    1.0327   -0.0633 P   0  0  0  0  0  0  0  0  0  0  0  0
    1.7022   -0.9825   -0.1075 O   0  5  0  0  0  0  0  0  0  0  0  0
    3.3085    2.1611    0.1994 N   0  0  0  0  0  0  0  0  0  0  0  0
    3.3189    0.7834    0.0671 N   0  0  0  0  0  0  0  0  0  0  0  0
    1.1723    1.3968    0.0244 C   0  0  0  0  0  0  0  0  0  0  0  0
    2.0324    2.5329    0.1768 C   0  0  0  0  0  0  0  0  0  0  0  0
    1.6447    3.9700    0.3192 C   0  0  0  0  0  0  0  0  0  0  0  0
    2.0285    0.2644   -0.0247 C   0  0  0  0  0  0  0  0  0  0  0  0
    4.5524    0.0962    0.0804 C   0  0  0  0  0  0  0  0  0  0  0  0
    4.6286   -1.2759   -0.2452 C   0  0  0  0  0  0  0  0  0  0  0  0
    5.8708   -1.9250   -0.2188 C   0  0  0  0  0  0  0  0  0  0  0  0
    7.0420   -1.2303    0.1211 C   0  0  0  0  0  0  0  0  0  0  0  0
    6.9589    0.1367    0.4343 C   0  0  0  0  0  0  0  0  0  0  0  0
    5.7277    0.8023    0.4171 C   0  0  0  0  0  0  0  0  0  0  0  0
   -1.4002    1.9612    1.2792 C   0  0  0  0  0  0  0  0  0  0  0  0
   -1.2518    1.4790    2.5970 C   0  0  0  0  0  0  0  0  0  0  0  0
   -1.8168    2.1799    3.6698 C   0  0  0  0  0  0  0  0  0  0  0  0
   -2.5366    3.3649    3.4362 C   0  0  0  0  0  0  0  0  0  0  0  0
   -2.6880    3.8458    2.1268 C   0  0  0  0  0  0  0  0  0  0  0  0
   -2.1226    3.1476    1.0472 C   0  0  0  0  0  0  0  0  0  0  0  0
   -1.2534    1.7106   -1.6236 C   0  0  0  0  0  0  0  0  0  0  0  0
   -2.6173    1.5250   -1.9360 C   0  0  0  0  0  0  0  0  0  0  0  0
   -3.1331    2.0196   -3.1417 C   0  0  0  0  0  0  0  0  0  0  0  0
   -2.2943    2.6912   -4.0478 C   0  0  0  0  0  0  0  0  0  0  0  0
   -0.9345    2.8624   -3.7466 C   0  0  0  0  0  0  0  0  0  0  0  0
   -0.4121    2.3720   -2.5393 C   0  0  0  0  0  0  0  0  0  0  0  0
    1.0626    4.3246   -0.5573 H   0  0  0  0  0  0  0  0  0  0  0  0
    1.0019    4.1221    1.2116 H   0  0  0  0  0  0  0  0  0  0  0  0
    2.5515    4.5951    0.4206 H   0  0  0  0  0  0  0  0  0  0  0  0
    3.7111   -1.8100   -0.5190 H   0  0  0  0  0  0  0  0  0  0  0  0
    5.9204   -2.9947   -0.4757 H   0  0  0  0  0  0  0  0  0  0  0  0
    8.0126   -1.7483    0.1382 H   0  0  0  0  0  0  0  0  0  0  0  0
    7.8686    0.6978    0.6989 H   0  0  0  0  0  0  0  0  0  0  0  0
    5.6405    1.8702    0.6543 H   0  0  0  0  0  0  0  0  0  0  0  0
   -0.6942    0.5441    2.7687 H   0  0  0  0  0  0  0  0  0  0  0  0
   -1.6997    1.7977    4.6952 H   0  0  0  0  0  0  0  0  0  0  0  0
   -2.9832    3.9131    4.2796 H   0  0  0  0  0  0  0  0  0  0  0  0
   -3.2498    4.7738    1.9407 H   0  0  0  0  0  0  0  0  0  0  0  0
   -2.2413    3.5268    0.0212 H   0  0  0  0  0  0  0  0  0  0  0  0
   -3.2734    0.9806   -1.2397 H   0  0  0  0  0  0  0  0  0  0  0  0
   -4.1974    1.8712   -3.3799 H   0  0  0  0  0  0  0  0  0  0  0  0
   -2.7022    3.0752   -4.9953 H   0  0  0  0  0  0  0  0  0  0  0  0
   -0.2713    3.3794   -4.4569 H   0  0  0  0  0  0  0  0  0  0  0  0
    0.6567    2.4874   -2.3014 H   0  0  0  0  0  0  0  0  0  0  0  0
  1  5  1  0  0  0  0
  1 15  1  0  0  0  0
  2  8  1  0  0  0  0
  4  9  1  0  0  0  0
  4  3  1  0  0  0  0
  5  6  1  0  0  0  0
  6  3  2  0  0  0  0
  6  7  1  0  0  0  0
  7 29  1  0  0  0  0
  7 28  1  0  0  0  0
  8  5  2  0  0  0  0
  8  4  1  0  0  0  0
  9 14  1  0  0  0  0
 10 11  1  0  0  0  0
 10  9  2  0  0  0  0
 11 12  2  0  0  0  0
 12 32  1  0  0  0  0
 12 13  1  0  0  0  0
 13 33  1  0  0  0  0
 14 13  2  0  0  0  0
 14 34  1  0  0  0  0
 15 16  1  0  0  0  0
 16 35  1  0  0  0  0
 16 17  2  0  0  0  0
 17 36  1  0  0  0  0
 18 17  1  0  0  0  0
 18 37  1  0  0  0  0
 19 18  2  0  0  0  0
 20 15  2  0  0  0  0
 20 19  1  0  0  0  0
 21  1  1  0  0  0  0
 22 21  1  0  0  0  0
 22 40  1  0  0  0  0
 23 22  2  0  0  0  0
 24 25  2  0  0  0  0
 24 23  1  0  0  0  0
 25 26  1  0  0  0  0
 26 44  1  0  0  0  0
 26 21  2  0  0  0  0
 27  7  1  0  0  0  0
 30 10  1  0  0  0  0
 31 11  1  0  0  0  0
 38 19  1  0  0  0  0
 39 20  1  0  0  0  0
 41 23  1  0  0  0  0
 42 24  1  0  0  0  0
 43 25  1  0  0  0  0
M  CHG  1   2  -1
M  END
