2
q = -1.0, confidence = 0.02

 41 41  0  0  0  0  0  0  0  0999 V2000
   -1.9692    0.0944    0.0350 P   0  0  0  0  0  0  0  0  0  0  0  0
   -0.2139   -2.0826    0.0210 O   0  0  0  0  0  1  0  0  0  0  0  0
   -2.3605   -0.9115    1.2779 O   0  0  0  0  0  0  0  0  0  0  0  0
   -3.3290    0.3995   -0.8559 O   0  0  0  0  0  0  0  0  0  0  0  0
   -2.0271    1.5153    0.8737 O   0  0  0  0  0  0  0  0  0  0  0  0
   -0.8338   -2.8300    1.0516 C   0  0  0  0  0  0  0  0  0  0  0  0
   -0.0766   -2.5839    2.3643 C   0  0  0  0  0  0  0  0  0  0  0  0
    0.9992   -2.7783    2.2112 H   0  0  0  0  0  0  0  0  0  0  0  0
   -0.4387   -3.2551    3.1655 H   0  0  0  0  0  0  0  0  0  0  0  0
   -0.1994   -1.5367    2.6996 H   0  0  0  0  0  0  0  0  0  0  0  0
   -0.7146   -4.3044    0.6340 C   0  0  0  0  0  0  0  0  0  0  0  0
   -1.0990   -4.4463   -0.3925 H   0  0  0  0  0  0  0  0  0  0  0  0
   -1.2615   -4.9713    1.3297 H   0  0  0  0  0  0  0  0  0  0  0  0
    0.3541   -4.5936    0.6404 H   0  0  0  0  0  0  0  0  0  0  0  0
   -2.3460   -2.3760    1.1712 C   0  0  0  0  0  0  0  0  0  0  0  0
   -2.9931   -2.8374    2.4793 C   0  0  0  0  0  0  0  0  0  0  0  0
   -2.5209   -2.3592    3.3567 H   0  0  0  0  0  0  0  0  0  0  0  0
   -2.9221   -3.9371    2.5867 H   0  0  0  0  0  0  0  0  0  0  0  0
   -4.0653   -2.5611    2.4724 H   0  0  0  0  0  0  0  0  0  0  0  0
   -3.2036   -2.8147   -0.0168 C   0  0  0  0  0  0  0  0  0  0  0  0
   -4.1875   -2.3105    0.0417 H   0  0  0  0  0  0  0  0  0  0  0  0
   -3.3767   -3.9074    0.0169 H   0  0  0  0  0  0  0  0  0  0  0  0
   -2.7396   -2.5656   -0.9930 H   0  0  0  0  0  0  0  0  0  0  0  0
   -4.1023    1.5109   -0.3011 C   0  0  0  0  0  0  0  0  0  0  0  0
   -5.0509    0.9473    0.7626 C   0  0  0  0  0  0  0  0  0  0  0  0
   -5.6433    0.1278    0.3114 H   0  0  0  0  0  0  0  0  0  0  0  0
   -5.7537    1.7219    1.1266 H   0  0  0  0  0  0  0  0  0  0  0  0
   -4.4903    0.5348    1.6227 H   0  0  0  0  0  0  0  0  0  0  0  0
   -4.8773    2.1268   -1.4594 C   0  0  0  0  0  0  0  0  0  0  0  0
   -4.2073    2.3670   -2.3045 H   0  0  0  0  0  0  0  0  0  0  0  0
   -5.3938    3.0512   -1.1319 H   0  0  0  0  0  0  0  0  0  0  0  0
   -5.6421    1.4125   -1.8205 H   0  0  0  0  0  0  0  0  0  0  0  0
   -2.9930    2.4544    0.3035 C   0  0  0  0  0  0  0  0  0  0  0  0
   -3.4783    3.3348    1.4499 C   0  0  0  0  0  0  0  0  0  0  0  0
   -3.8533    2.7299    2.2953 H   0  0  0  0  0  0  0  0  0  0  0  0
   -4.2870    4.0084    1.1026 H   0  0  0  0  0  0  0  0  0  0  0  0
   -2.6397    3.9574    1.8169 H   0  0  0  0  0  0  0  0  0  0  0  0
   -2.2599    3.2836   -0.7537 C   0  0  0  0  0  0  0  0  0  0  0  0
   -1.3692    3.7428   -0.2824 H   0  0  0  0  0  0  0  0  0  0  0  0
   -2.9036    4.0917   -1.1518 H   0  0  0  0  0  0  0  0  0  0  0  0
   -1.9073    2.6511   -1.5911 H   0  0  0  0  0  0  0  0  0  0  0  0
  1  5  1  0  0  0  0
  1  3  1  0  0  0  0
  2  6  1  0  0  0  0
  4 24  1  0  0  0  0
  4  1  1  0  0  0  0
  6 15  1  0  0  0  0
  6  7  1  0  0  0  0
  7 10  1  0  0  0  0
  7  9  1  0  0  0  0
  8  7  1  0  0  0  0
 11 14  1  0  0  0  0
 11  6  1  0  0  0  0
 11 13  1  0  0  0  0
 12 11  1  0  0  0  0
 15  3  1  0  0  0  0
 15 16  1  0  0  0  0
 16 18  1  0  0  0  0
 16 17  1  0  0  0  0
 19 16  1  0  0  0  0
 20 22  1  0  0  0  0
 20 21  1  0  0  0  0
 20 15  1  0  0  0  0
 23 20  1  0  0  0  0
 24 33  1  0  0  0  0
 24 25  1  0  0  0  0
 25 27  1  0  0  0  0
 25 28  1  0  0  0  0
 26 25  1  0  0  0  0
 29 31  1  0  0  0  0
 29 24  1  0  0  0  0
 30 29  1  0  0  0  0
 32 29  1  0  0  0  0
 33  5  1  0  0  0  0
 33 34  1  0  0  0  0
 34 37  1  0  0  0  0
 34 35  1  0  0  0  0
 36 34  1  0  0  0  0
 38 39  1  0  0  0  0
 38 33  1  0  0  0  0
 40 38  1  0  0  0  0
 41 38  1  0  0  0  0
M  END
