1,3
q = -1.0, confidence = 0.0

 15 14  0  0  0  0  0  0  0  0999 V2000
   -2.0849    0.9458   -0.5319 P   0  0  0  0  0  0  0  0  0  0  0  0
   -3.0791   -2.7637   -0.8695 O   0  5  0  0  0  0  0  0  0  0  0  0
   -1.0683   -1.7669   -0.7588 O   0  0  0  0  0  0  0  0  0  0  0  0
   -2.9344   -0.4151   -1.4503 C   0  0  0  0  0  0  0  0  0  0  0  0
   -4.0381   -0.3952   -1.3623 H   0  0  0  0  0  0  0  0  0  0  0  0
   -2.6595   -0.2870   -2.5186 H   0  0  0  0  0  0  0  0  0  0  0  0
   -2.3560   -1.7755   -0.9842 C   0  0  0  0  0  0  0  0  0  0  0  0
   -3.3071    1.3466    0.8091 C   0  0  0  0  0  0  0  0  0  0  0  0
   -2.8897    2.1092    1.4958 H   0  0  0  0  0  0  0  0  0  0  0  0
   -3.5238    0.4340    1.3934 H   0  0  0  0  0  0  0  0  0  0  0  0
   -4.2545    1.7269    0.3756 H   0  0  0  0  0  0  0  0  0  0  0  0
   -2.3196    2.4311   -1.6121 C   0  0  0  0  0  0  0  0  0  0  0  0
   -3.3891    2.5668   -1.8712 H   0  0  0  0  0  0  0  0  0  0  0  0
   -1.7238    2.2933   -2.5339 H   0  0  0  0  0  0  0  0  0  0  0  0
   -1.9637    3.3441   -1.0936 H   0  0  0  0  0  0  0  0  0  0  0  0
  1  8  1  0  0  0  0
  4  5  1  0  0  0  0
  4  7  1  0  0  0  0
  4  1  1  0  0  0  0
  6  4  1  0  0  0  0
  7  2  1  0  0  0  0
  7  3  2  0  0  0  0
  8 10  1  0  0  0  0
  8  9  1  0  0  0  0
 11  8  1  0  0  0  0
 12 15  1  0  0  0  0
 12  1  1  0  0  0  0
 13 12  1  0  0  0  0
 14 12  1  0  0  0  0
M  CHG  1   2  -1
M  END
