1,5
q = -1.0

 41 42  0  0  0  0  0  0  0  0999 V2000
   -1.7142    0.1264   -0.5430 P   0  0  0  0  0  0  0  0  0  0  0  0
   -1.5221   -2.9277   -2.0494 S   0  0  0  0  0  0  0  0  0  0  0  0
    0.1335    1.6047   -2.2283 O   0  0  0  0  0  0  0  0  0  0  0  0
   -4.6915    0.7978   -0.6828 O   0  0  0  0  0  0  0  0  0  0  0  0
   -1.3835   -2.7422   -0.4916 O   0  0  0  0  0  1  0  0  0  0  0  0
   -0.3054   -2.4438   -2.7704 O   0  0  0  0  0  1  0  0  0  0  0  0
   -2.0618   -4.2631   -2.3624 O   0  0  0  0  0  1  0  0  0  0  0  0
   -1.5889    1.9506   -0.6625 C   0  0  0  0  0  0  0  0  0  0  0  0
   -2.4194    2.8166    0.0679 C   0  0  0  0  0  0  0  0  0  0  0  0
   -3.1371    2.3894    0.7825 H   0  0  0  0  0  0  0  0  0  0  0  0
   -2.3479    4.2064   -0.1099 C   0  0  0  0  0  0  0  0  0  0  0  0
   -3.0097    4.8701    0.4656 H   0  0  0  0  0  0  0  0  0  0  0  0
   -1.4347    4.7377   -1.0313 C   0  0  0  0  0  0  0  0  0  0  0  0
   -1.3710    5.8259   -1.1822 H   0  0  0  0  0  0  0  0  0  0  0  0
   -0.5855    3.8962   -1.7643 C   0  0  0  0  0  0  0  0  0  0  0  0
    0.1364    4.3281   -2.4689 H   0  0  0  0  0  0  0  0  0  0  0  0
   -0.6522    2.5024   -1.5770 C   0  0  0  0  0  0  0  0  0  0  0  0
    1.0322    2.0563   -3.2299 C   0  0  0  0  0  0  0  0  0  0  0  0
    0.4876    2.5347   -4.0731 H   0  0  0  0  0  0  0  0  0  0  0  0
    1.5645    1.1569   -3.5885 H   0  0  0  0  0  0  0  0  0  0  0  0
    1.7723    2.7737   -2.8164 H   0  0  0  0  0  0  0  0  0  0  0  0
   -3.0360   -0.2121    0.6797 C   0  0  0  0  0  0  0  0  0  0  0  0
   -2.6757   -0.8976    1.8579 C   0  0  0  0  0  0  0  0  0  0  0  0
   -1.6288   -1.2186    2.0025 H   0  0  0  0  0  0  0  0  0  0  0  0
   -3.6332   -1.2006    2.8370 C   0  0  0  0  0  0  0  0  0  0  0  0
   -3.3294   -1.7486    3.7402 H   0  0  0  0  0  0  0  0  0  0  0  0
   -4.9677   -0.8232    2.6371 C   0  0  0  0  0  0  0  0  0  0  0  0
   -5.7309   -1.0618    3.3936 H   0  0  0  0  0  0  0  0  0  0  0  0
   -5.3555   -0.1510    1.4672 C   0  0  0  0  0  0  0  0  0  0  0  0
   -6.4084    0.1252    1.3243 H   0  0  0  0  0  0  0  0  0  0  0  0
   -4.3959    0.1519    0.4808 C   0  0  0  0  0  0  0  0  0  0  0  0
   -6.0252    1.2103   -0.9235 C   0  0  0  0  0  0  0  0  0  0  0  0
   -6.7245    0.3462   -0.9573 H   0  0  0  0  0  0  0  0  0  0  0  0
   -6.0207    1.7112   -1.9089 H   0  0  0  0  0  0  0  0  0  0  0  0
   -6.3783    1.9303   -0.1523 H   0  0  0  0  0  0  0  0  0  0  0  0
   -2.3544   -0.2849   -2.2457 C   0  0  0  0  0  0  0  0  0  0  0  0
   -3.1589    0.4414   -2.4664 H   0  0  0  0  0  0  0  0  0  0  0  0
   -1.4900   -0.0906   -2.9103 H   0  0  0  0  0  0  0  0  0  0  0  0
   -2.8359   -1.7146   -2.4287 C   0  0  0  0  0  0  0  0  0  0  0  0
   -3.1207   -1.9025   -3.4835 H   0  0  0  0  0  0  0  0  0  0  0  0
   -3.6904   -1.9774   -1.7747 H   0  0  0  0  0  0  0  0  0  0  0  0
  1 22  1  0  0  0  0
  2  5  1  0  0  0  0
  3 17  1  0  0  0  0
  4 31  1  0  0  0  0
  6  2  1  0  0  0  0
  7  2  1  0  0  0  0
  8  1  1  0  0  0  0
  8  9  1  0  0  0  0
  9 10  1  0  0  0  0
 11  9  2  0  0  0  0
 11 12  1  0  0  0  0
 13 11  1  0  0  0  0
 14 13  1  0  0  0  0
 15 17  1  0  0  0  0
 15 13  2  0  0  0  0
 16 15  1  0  0  0  0
 17  8  2  0  0  0  0
 18 21  1  0  0  0  0
 18  3  1  0  0  0  0
 19 18  1  0  0  0  0
 20 18  1  0  0  0  0
 22 23  1  0  0  0  0
 23 24  1  0  0  0  0
 23 25  2  0  0  0  0
 25 26  1  0  0  0  0
 27 25  1  0  0  0  0
 27 28  1  0  0  0  0
 29 27  2  0  0  0  0
 30 29  1  0  0  0  0
 31 22  2  0  0  0  0
 31 29  1  0  0  0  0
 32  4  1  0  0  0  0
 32 35  1  0  0  0  0
 33 32  1  0  0  0  0
 34 32  1  0  0  0  0
 36  1  1  0  0  0  0
 37 36  1  0  0  0  0
 38 36  1  0  0  0  0
 39 36  1  0  0  0  0
 39  2  1  0  0  0  0
 39 41  1  0  0  0  0
 40 39  1  0  0  0  0
M  END
