1,3
q = -1.0

 48 51  0  0  0  0  0  0  0  0999 V2000
    1.5475   -0.2134    0.5930 P   0  0  0  0  0  0  0  0  0  0  0  0
   -0.3974    1.7314    0.2393 P   0  0  0  0  0  4  0  0  0  0  0  0
   -0.9274    0.7369   -0.8715 O   0  0  0  0  0  1  0  0  0  0  0  0
    0.8171    1.1867    1.1667 N   0  0  0  0  0  2  0  0  0  0  0  0
    3.1699    0.2921   -0.1273 C   0  0  0  0  0  0  0  0  0  0  0  0
    3.9836   -0.6483   -0.7882 C   0  0  0  0  0  0  0  0  0  0  0  0
    3.6576   -1.6976   -0.8686 H   0  0  0  0  0  0  0  0  0  0  0  0
    5.1947   -0.2427   -1.3658 C   0  0  0  0  0  0  0  0  0  0  0  0
    5.8268   -0.9794   -1.8849 H   0  0  0  0  0  0  0  0  0  0  0  0
    5.5924    1.1037   -1.2975 C   0  0  0  0  0  0  0  0  0  0  0  0
    6.5390    1.4216   -1.7610 H   0  0  0  0  0  0  0  0  0  0  0  0
    4.7762    2.0432   -0.6482 C   0  0  0  0  0  0  0  0  0  0  0  0
    5.0800    3.1006   -0.6014 H   0  0  0  0  0  0  0  0  0  0  0  0
    3.5670    1.6397   -0.0600 C   0  0  0  0  0  0  0  0  0  0  0  0
    2.9086    2.3602    0.4498 H   0  0  0  0  0  0  0  0  0  0  0  0
    0.0830    3.2653   -0.6254 C   0  0  0  0  0  0  0  0  0  0  0  0
    0.7042    3.1439   -1.8859 C   0  0  0  0  0  0  0  0  0  0  0  0
    0.8004    2.1506   -2.3505 H   0  0  0  0  0  0  0  0  0  0  0  0
    1.1984    4.2847   -2.5331 C   0  0  0  0  0  0  0  0  0  0  0  0
    1.6870    4.1863   -3.5145 H   0  0  0  0  0  0  0  0  0  0  0  0
    1.0702    5.5486   -1.9323 C   0  0  0  0  0  0  0  0  0  0  0  0
    1.4578    6.4431   -2.4439 H   0  0  0  0  0  0  0  0  0  0  0  0
    0.4465    5.6719   -0.6801 C   0  0  0  0  0  0  0  0  0  0  0  0
    0.3423    6.6621   -0.2105 H   0  0  0  0  0  0  0  0  0  0  0  0
   -0.0453    4.5323   -0.0251 C   0  0  0  0  0  0  0  0  0  0  0  0
   -0.5330    4.6263    0.9580 H   0  0  0  0  0  0  0  0  0  0  0  0
    2.0808   -1.0717    2.1420 C   0  0  0  0  0  0  0  0  0  0  0  0
    2.4974   -2.4181    2.1201 C   0  0  0  0  0  0  0  0  0  0  0  0
    2.4910   -2.9878    1.1794 H   0  0  0  0  0  0  0  0  0  0  0  0
    2.8964   -3.0476    3.3097 C   0  0  0  0  0  0  0  0  0  0  0  0
    3.2162   -4.1007    3.2867 H   0  0  0  0  0  0  0  0  0  0  0  0
    2.8786   -2.3427    4.5243 C   0  0  0  0  0  0  0  0  0  0  0  0
    3.1878   -2.8413    5.4559 H   0  0  0  0  0  0  0  0  0  0  0  0
    2.4614   -1.0015    4.5478 C   0  0  0  0  0  0  0  0  0  0  0  0
    2.4472   -0.4453    5.4982 H   0  0  0  0  0  0  0  0  0  0  0  0
    2.0641   -0.3663    3.3615 C   0  0  0  0  0  0  0  0  0  0  0  0
    1.7294    0.6827    3.3533 H   0  0  0  0  0  0  0  0  0  0  0  0
   -1.8034    2.1576    1.3253 C   0  0  0  0  0  0  0  0  0  0  0  0
   -1.6551    2.1464    2.7244 C   0  0  0  0  0  0  0  0  0  0  0  0
   -0.6657    1.9128    3.1462 H   0  0  0  0  0  0  0  0  0  0  0  0
   -2.7609    2.4080    3.5487 C   0  0  0  0  0  0  0  0  0  0  0  0
   -2.6428    2.4024    4.6433 H   0  0  0  0  0  0  0  0  0  0  0  0
   -4.0164    2.6740    2.9784 C   0  0  0  0  0  0  0  0  0  0  0  0
   -4.8828    2.8801    3.6258 H   0  0  0  0  0  0  0  0  0  0  0  0
   -4.1679    2.6786    1.5808 C   0  0  0  0  0  0  0  0  0  0  0  0
   -5.1531    2.8840    1.1342 H   0  0  0  0  0  0  0  0  0  0  0  0
   -3.0649    2.4217    0.7540 C   0  0  0  0  0  0  0  0  0  0  0  0
   -3.1770    2.4115   -0.3413 H   0  0  0  0  0  0  0  0  0  0  0  0
  1  4  1  0  0  0  0
  1 27  1  0  0  0  0
  2  4  1  0  0  0  0
  2 38  1  0  0  0  0
  3  2  1  0  0  0  0
  5 14  1  0  0  0  0
  5  1  1  0  0  0  0
  6  5  2  0  0  0  0
  7  6  1  0  0  0  0
  8 10  2  0  0  0  0
  8  6  1  0  0  0  0
  9  8  1  0  0  0  0
 10 12  1  0  0  0  0
 11 10  1  0  0  0  0
 12 13  1  0  0  0  0
 12 14  2  0  0  0  0
 14 15  1  0  0  0  0
 16 25  1  0  0  0  0
 16  2  1  0  0  0  0
 17 16  2  0  0  0  0
 18 17  1  0  0  0  0
 19 21  2  0  0  0  0
 19 17  1  0  0  0  0
 20 19  1  0  0  0  0
 21 23  1  0  0  0  0
 22 21  1  0  0  0  0
 23 24  1  0  0  0  0
 23 25  2  0  0  0  0
 25 26  1  0  0  0  0
 27 36  1  0  0  0  0
 28 27  2  0  0  0  0
 28 30  1  0  0  0  0
 29 28  1  0  0  0  0
 30 32  2  0  0  0  0
 31 30  1  0  0  0  0
 32 34  1  0  0  0  0
 32 33  1  0  0  0  0
 34 35  1  0  0  0  0
 36 34  2  0  0  0  0
 37 36  1  0  0  0  0
 38 39  1  0  0  0  0
 39 40  1  0  0  0  0
 39 41  2  0  0  0  0
 41 42  1  0  0  0  0
 43 41  1  0  0  0  0
 43 44  1  0  0  0  0
 45 43  2  0  0  0  0
 46 45  1  0  0  0  0
 47 38  2  0  0  0  0
 47 45  1  0  0  0  0
 48 47  1  0  0  0  0
M  END
