1,3
q = 0.0, confidence = 1.0

 52 51  0  0  0  0  0  0  0  0999 V2000
   -1.3021   -0.9691    0.1636 P   0  0  0  0  0  0  0  0  0  0  0  0
    1.6385   -0.2497   -0.0331 P   0  0  0  0  0  4  0  0  0  0  0  0
    0.9348    0.5632   -1.1485 O   0  0  0  0  0  1  0  0  0  0  0  0
    2.1575    0.8830    1.3984 C   0  0  0  0  0  0  0  0  0  0  0  0
    2.5459    2.2295    0.7518 C   0  0  0  0  0  0  0  0  0  0  0  0
    1.6952    2.6679    0.1903 H   0  0  0  0  0  0  0  0  0  0  0  0
    3.4093    2.1396    0.0661 H   0  0  0  0  0  0  0  0  0  0  0  0
    2.8304    2.9336    1.5617 H   0  0  0  0  0  0  0  0  0  0  0  0
    3.3079    0.3072    2.2393 C   0  0  0  0  0  0  0  0  0  0  0  0
    4.2544    0.2163    1.6733 H   0  0  0  0  0  0  0  0  0  0  0  0
    3.0590   -0.6828    2.6740 H   0  0  0  0  0  0  0  0  0  0  0  0
    3.5006    0.9956    3.0887 H   0  0  0  0  0  0  0  0  0  0  0  0
    0.4483   -1.5383    0.5894 C   0  0  0  0  0  0  0  0  0  0  0  0
    0.5367   -1.6707    1.6860 H   0  0  0  0  0  0  0  0  0  0  0  0
    0.6685   -2.5146    0.1128 H   0  0  0  0  0  0  0  0  0  0  0  0
    3.0896   -1.1865   -0.8043 C   0  0  0  0  0  0  0  0  0  0  0  0
    0.9486    1.1157    2.3218 C   0  0  0  0  0  0  0  0  0  0  0  0
    1.2013    1.9292    3.0331 H   0  0  0  0  0  0  0  0  0  0  0  0
    0.6994    0.2184    2.9206 H   0  0  0  0  0  0  0  0  0  0  0  0
    0.0461    1.4325    1.7529 H   0  0  0  0  0  0  0  0  0  0  0  0
   -1.8378   -2.0826   -1.2531 C   0  0  0  0  0  0  0  0  0  0  0  0
   -1.5027   -3.1148   -1.0039 H   0  0  0  0  0  0  0  0  0  0  0  0
    2.5340   -1.8453   -2.0823 C   0  0  0  0  0  0  0  0  0  0  0  0
    2.0863   -1.0920   -2.7574 H   0  0  0  0  0  0  0  0  0  0  0  0
    1.7708   -2.6186   -1.8627 H   0  0  0  0  0  0  0  0  0  0  0  0
    3.3668   -2.3493   -2.6155 H   0  0  0  0  0  0  0  0  0  0  0  0
   -2.3284   -1.5663    1.6156 C   0  0  0  0  0  0  0  0  0  0  0  0
   -3.3618   -1.3375    1.2752 H   0  0  0  0  0  0  0  0  0  0  0  0
   -1.1723   -1.6211   -2.5543 C   0  0  0  0  0  0  0  0  0  0  0  0
   -1.4404   -2.3106   -3.3815 H   0  0  0  0  0  0  0  0  0  0  0  0
   -0.0727   -1.5749   -2.4780 H   0  0  0  0  0  0  0  0  0  0  0  0
   -1.5112   -0.5989   -2.8192 H   0  0  0  0  0  0  0  0  0  0  0  0
    3.6663   -2.2732    0.1189 C   0  0  0  0  0  0  0  0  0  0  0  0
    4.4403   -2.8429   -0.4378 H   0  0  0  0  0  0  0  0  0  0  0  0
    2.8950   -3.0024    0.4396 H   0  0  0  0  0  0  0  0  0  0  0  0
    4.1480   -1.8611    1.0233 H   0  0  0  0  0  0  0  0  0  0  0  0
    4.1732   -0.1739   -1.2205 C   0  0  0  0  0  0  0  0  0  0  0  0
    4.6836    0.2857   -0.3530 H   0  0  0  0  0  0  0  0  0  0  0  0
    3.7437    0.6341   -1.8447 H   0  0  0  0  0  0  0  0  0  0  0  0
    4.9460   -0.6969   -1.8220 H   0  0  0  0  0  0  0  0  0  0  0  0
   -2.2096   -3.0712    1.8777 C   0  0  0  0  0  0  0  0  0  0  0  0
   -1.1785   -3.3495    2.1802 H   0  0  0  0  0  0  0  0  0  0  0  0
   -2.4811   -3.6834    0.9955 H   0  0  0  0  0  0  0  0  0  0  0  0
   -2.8831   -3.3690    2.7083 H   0  0  0  0  0  0  0  0  0  0  0  0
   -2.0653   -0.7361    2.8749 C   0  0  0  0  0  0  0  0  0  0  0  0
   -2.8185   -0.9791    3.6524 H   0  0  0  0  0  0  0  0  0  0  0  0
   -2.1161    0.3496    2.6666 H   0  0  0  0  0  0  0  0  0  0  0  0
   -1.0689   -0.9572    3.3094 H   0  0  0  0  0  0  0  0  0  0  0  0
   -3.3659   -2.0548   -1.3940 C   0  0  0  0  0  0  0  0  0  0  0  0
   -3.7275   -1.0117   -1.5085 H   0  0  0  0  0  0  0  0  0  0  0  0
   -3.8932   -2.5148   -0.5356 H   0  0  0  0  0  0  0  0  0  0  0  0
   -3.6661   -2.6122   -2.3050 H   0  0  0  0  0  0  0  0  0  0  0  0
  1 13  1  0  0  0  0
  1 27  1  0  0  0  0
  2 13  1  0  0  0  0
  2  4  1  0  0  0  0
  3  2  1  0  0  0  0
  4  9  1  0  0  0  0
  4 17  1  0  0  0  0
  5  4  1  0  0  0  0
  5  8  1  0  0  0  0
  6  5  1  0  0  0  0
  7  5  1  0  0  0  0
  9 11  1  0  0  0  0
  9 12  1  0  0  0  0
 10  9  1  0  0  0  0
 13 14  1  0  0  0  0
 15 13  1  0  0  0  0
 16  2  1  0  0  0  0
 16 33  1  0  0  0  0
 17 19  1  0  0  0  0
 17 18  1  0  0  0  0
 20 17  1  0  0  0  0
 21 22  1  0  0  0  0
 21  1  1  0  0  0  0
 23 25  1  0  0  0  0
 23 16  1  0  0  0  0
 24 23  1  0  0  0  0
 26 23  1  0  0  0  0
 27 41  1  0  0  0  0
 27 45  1  0  0  0  0
 28 27  1  0  0  0  0
 29 31  1  0  0  0  0
 29 21  1  0  0  0  0
 30 29  1  0  0  0  0
 32 29  1  0  0  0  0
 33 35  1  0  0  0  0
 33 36  1  0  0  0  0
 34 33  1  0  0  0  0
 37 16  1  0  0  0  0
 37 38  1  0  0  0  0
 39 37  1  0  0  0  0
 40 37  1  0  0  0  0
 41 42  1  0  0  0  0
 41 44  1  0  0  0  0
 43 41  1  0  0  0  0
 45 48  1  0  0  0  0
 45 46  1  0  0  0  0
 47 45  1  0  0  0  0
 49 21  1  0  0  0  0
 49 51  1  0  0  0  0
 50 49  1  0  0  0  0
 52 49  1  0  0  0  0
M  END
