1,13
q = -1.0, confidence = 0.01

 55 58  0  0  0  0  0  0  0  0999 V2000
    0.0842   -0.0364    0.8727 P   0  0  1  0  0  0  0  0  0  0  0  0
    1.8054   -0.6845    0.9677 C   0  0  0  0  0  0  0  0  0  0  0  0
    2.7660    0.0484    1.6934 C   0  0  0  0  0  0  0  0  0  0  0  0
    2.5053    1.0353    2.1015 H   0  0  0  0  0  0  0  0  0  0  0  0
    4.0629   -0.4522    1.8682 C   0  0  0  0  0  0  0  0  0  0  0  0
    4.7938    0.1245    2.4549 H   0  0  0  0  0  0  0  0  0  0  0  0
    4.4236   -1.6814    1.2947 C   0  0  0  0  0  0  0  0  0  0  0  0
    5.4447   -2.0732    1.4189 H   0  0  0  0  0  0  0  0  0  0  0  0
    3.4776   -2.4196    0.5711 C   0  0  0  0  0  0  0  0  0  0  0  0
    3.7190   -3.3906    0.1150 H   0  0  0  0  0  0  0  0  0  0  0  0
    2.1681   -1.9375    0.4249 C   0  0  0  0  0  0  0  0  0  0  0  0
    0.9671   -3.0658   -0.3553 S   0  0  0  0  0  0  0  0  0  0  0  0
    0.2820   -2.1934   -1.4492 O   0  0  0  0  0  1  0  0  0  0  0  0
    0.0111   -3.4024    0.7403 O   0  0  0  0  0  1  0  0  0  0  0  0
    1.7526   -4.1560   -0.9703 O   0  0  0  0  0  1  0  0  0  0  0  0
   -0.5309   -0.2896    2.5884 C   0  0  0  0  0  0  0  0  0  0  0  0
   -1.4538   -1.3300    2.8126 C   0  0  0  0  0  0  0  0  0  0  0  0
   -1.8044   -1.9267    1.9566 H   0  0  0  0  0  0  0  0  0  0  0  0
   -1.8914   -1.6110    4.1156 C   0  0  0  0  0  0  0  0  0  0  0  0
   -2.6093   -2.4280    4.2823 H   0  0  0  0  0  0  0  0  0  0  0  0
   -1.4128   -0.8592    5.1987 C   0  0  0  0  0  0  0  0  0  0  0  0
   -1.7600   -1.0789    6.2198 H   0  0  0  0  0  0  0  0  0  0  0  0
   -0.4854    0.1733    4.9799 C   0  0  0  0  0  0  0  0  0  0  0  0
   -0.1046    0.7636    5.8271 H   0  0  0  0  0  0  0  0  0  0  0  0
   -0.0392    0.4549    3.6816 C   0  0  0  0  0  0  0  0  0  0  0  0
    0.6875    1.2648    3.5220 H   0  0  0  0  0  0  0  0  0  0  0  0
    0.2178    1.7845    0.6386 C   0  0  0  0  0  0  0  0  0  0  0  0
   -0.6431    2.6246    1.3793 C   0  0  0  0  0  0  0  0  0  0  0  0
   -1.3079    2.1951    2.1418 H   0  0  0  0  0  0  0  0  0  0  0  0
   -0.6889    4.0036    1.1358 C   0  0  0  0  0  0  0  0  0  0  0  0
   -1.3778    4.6329    1.7184 H   0  0  0  0  0  0  0  0  0  0  0  0
    0.1326    4.5629    0.1460 C   0  0  0  0  0  0  0  0  0  0  0  0
    0.1100    5.6460   -0.0490 H   0  0  0  0  0  0  0  0  0  0  0  0
    0.9791    3.7347   -0.6037 C   0  0  0  0  0  0  0  0  0  0  0  0
    1.6212    4.1621   -1.3880 H   0  0  0  0  0  0  0  0  0  0  0  0
    1.0280    2.3418   -0.3921 C   0  0  0  0  0  0  0  0  0  0  0  0
    1.9340    1.5164   -1.2435 C   0  0  0  0  0  0  0  0  0  0  0  0
    1.4396    0.7401   -2.3196 C   0  0  0  0  0  0  0  0  0  0  0  0
    2.3065   -0.0805   -3.0696 C   0  0  0  0  0  0  0  0  0  0  0  0
    1.9181   -0.7305   -3.8614 H   0  0  0  0  0  0  0  0  0  0  0  0
    3.6719   -0.0817   -2.7717 C   0  0  0  0  0  0  0  0  0  0  0  0
    4.3452   -0.7358   -3.3457 H   0  0  0  0  0  0  0  0  0  0  0  0
    4.2044    0.7333   -1.7629 C   0  0  0  0  0  0  0  0  0  0  0  0
    5.2815    0.7197   -1.5578 H   0  0  0  0  0  0  0  0  0  0  0  0
    3.3319    1.5401   -1.0104 C   0  0  0  0  0  0  0  0  0  0  0  0
    0.1064    0.8583   -2.5743 O   0  0  0  0  0  0  0  0  0  0  0  0
   -0.4388    0.1054   -3.6527 C   0  0  0  0  0  0  0  0  0  0  0  0
    0.0050    0.4195   -4.6232 H   0  0  0  0  0  0  0  0  0  0  0  0
   -1.5228    0.3213   -3.6599 H   0  0  0  0  0  0  0  0  0  0  0  0
   -0.2870   -0.9833   -3.5007 H   0  0  0  0  0  0  0  0  0  0  0  0
    3.7401    2.3689   -0.0043 O   0  0  0  0  0  0  0  0  0  0  0  0
    5.1282    2.5042    0.2300 C   0  0  0  0  0  0  0  0  0  0  0  0
    5.5908    1.5429    0.5451 H   0  0  0  0  0  0  0  0  0  0  0  0
    5.2358    3.2414    1.0474 H   0  0  0  0  0  0  0  0  0  0  0  0
    5.6626    2.8787   -0.6714 H   0  0  0  0  0  0  0  0  0  0  0  0
  1 27  1  1  0  0  0
  1  2  1  0  0  0  0
  1 16  1  0  0  0  0
  2  3  1  0  0  0  0
  3  5  2  0  0  0  0
  3  4  1  0  0  0  0
  5  6  1  0  0  0  0
  7  8  1  0  0  0  0
  7  5  1  0  0  0  0
  9  7  2  0  0  0  0
 10  9  1  0  0  0  0
 11  9  1  0  0  0  0
 11  2  2  0  0  0  0
 12 11  1  0  0  0  0
 12 14  1  0  0  0  0
 13 12  1  0  0  0  0
 15 12  1  0  0  0  0
 16 17  2  0  0  0  0
 16 25  1  0  0  0  0
 17 19  1  0  0  0  0
 18 17  1  0  0  0  0
 19 20  1  0  0  0  0
 19 21  2  0  0  0  0
 21 22  1  0  0  0  0
 23 21  1  0  0  0  0
 23 24  1  0  0  0  0
 25 23  2  0  0  0  0
 26 25  1  0  0  0  0
 27 28  1  0  0  0  0
 28 29  1  0  0  0  0
 30 28  2  0  0  0  0
 30 31  1  0  0  0  0
 32 30  1  0  0  0  0
 33 32  1  0  0  0  0
 34 36  1  0  0  0  0
 34 32  2  0  0  0  0
 35 34  1  0  0  0  0
 36 27  2  0  0  0  0
 37 45  1  0  0  0  0
 37 36  1  0  0  0  0
 38 37  2  0  0  0  0
 39 41  2  0  0  0  0
 39 38  1  0  0  0  0
 40 39  1  0  0  0  0
 41 43  1  0  0  0  0
 42 41  1  0  0  0  0
 43 44  1  0  0  0  0
 43 45  2  0  0  0  0
 45 51  1  0  0  0  0
 46 38  1  0  0  0  0
 47 50  1  0  0  0  0
 47 46  1  0  0  0  0
 48 47  1  0  0  0  0
 49 47  1  0  0  0  0
 51 52  1  0  0  0  0
 52 53  1  0  0  0  0
 52 54  1  0  0  0  0
 55 52  1  0  0  0  0
M  END
