1,3
q = -1.0

 43 45  0  0  1  0  0  0  0  0999 V2000
   -0.6458    0.1236   -0.1769 P   0  0  0  0  0  0  0  0  0  0  0  0
    0.4099   -3.2210    0.5917 S   0  0  0  0  0  0  0  0  0  0  0  0
    0.9169   -2.4264   -0.6651 O   0  0  0  0  0  1  0  0  0  0  0  0
    1.3706   -3.1415    1.7302 O   0  0  0  0  0  1  0  0  0  0  0  0
   -0.0699   -4.5511    0.1615 O   0  0  0  0  0  1  0  0  0  0  0  0
   -1.0845   -2.2811    1.1519 C   0  0  0  0  0  0  0  0  0  0  0  0
   -1.7807   -3.0723    1.4904 H   0  0  0  0  0  0  0  0  0  0  0  0
   -0.7761   -1.6775    2.0277 H   0  0  0  0  0  0  0  0  0  0  0  0
   -1.7028   -1.4483    0.0297 C   0  0  1  0  0  0  0  0  0  0  0  0
   -1.5520   -1.9880   -0.9276 H   0  0  0  0  0  0  0  0  0  0  0  0
   -3.1666   -1.1199    0.1934 C   0  0  0  0  0  0  0  0  0  0  0  0
   -3.7631   -1.0137    1.4673 C   0  0  0  0  0  0  0  0  0  0  0  0
   -3.1636   -1.2023    2.3697 H   0  0  0  0  0  0  0  0  0  0  0  0
   -5.1116   -0.6518    1.6007 C   0  0  0  0  0  0  0  0  0  0  0  0
   -5.5571   -0.5760    2.6041 H   0  0  0  0  0  0  0  0  0  0  0  0
   -5.8861   -0.3789    0.4631 C   0  0  0  0  0  0  0  0  0  0  0  0
   -6.9433   -0.0915    0.5677 H   0  0  0  0  0  0  0  0  0  0  0  0
   -5.3055   -0.4868   -0.8117 C   0  0  0  0  0  0  0  0  0  0  0  0
   -5.9071   -0.2879   -1.7117 H   0  0  0  0  0  0  0  0  0  0  0  0
   -3.9608   -0.8595   -0.9450 C   0  0  0  0  0  0  0  0  0  0  0  0
   -3.5135   -0.9471   -1.9464 H   0  0  0  0  0  0  0  0  0  0  0  0
   -1.2209    1.2293    1.1610 C   0  0  0  0  0  0  0  0  0  0  0  0
   -0.3675    1.4176    2.2692 C   0  0  0  0  0  0  0  0  0  0  0  0
    0.6359    0.9646    2.2556 H   0  0  0  0  0  0  0  0  0  0  0  0
   -0.7893    2.1886    3.3618 C   0  0  0  0  0  0  0  0  0  0  0  0
   -0.1153    2.3311    4.2196 H   0  0  0  0  0  0  0  0  0  0  0  0
   -2.0611    2.7827    3.3544 C   0  0  0  0  0  0  0  0  0  0  0  0
   -2.3887    3.3939    4.2092 H   0  0  0  0  0  0  0  0  0  0  0  0
   -2.9168    2.5952    2.2572 C   0  0  0  0  0  0  0  0  0  0  0  0
   -3.9194    3.0486    2.2521 H   0  0  0  0  0  0  0  0  0  0  0  0
   -2.5068    1.8155    1.1661 C   0  0  0  0  0  0  0  0  0  0  0  0
   -3.1971    1.6537    0.3264 H   0  0  0  0  0  0  0  0  0  0  0  0
   -1.1737    0.8093   -1.7915 C   0  0  0  0  0  0  0  0  0  0  0  0
   -1.6523    2.1201   -1.9799 C   0  0  0  0  0  0  0  0  0  0  0  0
   -1.7794    2.7929   -1.1199 H   0  0  0  0  0  0  0  0  0  0  0  0
   -1.9666    2.5753   -3.2710 C   0  0  0  0  0  0  0  0  0  0  0  0
   -2.3412    3.6010   -3.4080 H   0  0  0  0  0  0  0  0  0  0  0  0
   -1.8053    1.7308   -4.3786 C   0  0  0  0  0  0  0  0  0  0  0  0
   -2.0565    2.0899   -5.3880 H   0  0  0  0  0  0  0  0  0  0  0  0
   -1.3088    0.4279   -4.1975 C   0  0  0  0  0  0  0  0  0  0  0  0
   -1.1635   -0.2344   -5.0643 H   0  0  0  0  0  0  0  0  0  0  0  0
   -0.9839   -0.0293   -2.9145 C   0  0  0  0  0  0  0  0  0  0  0  0
   -0.5636   -1.0393   -2.7783 H   0  0  0  0  0  0  0  0  0  0  0  0
  1  9  1  0  0  0  0
  1 22  1  0  0  0  0
  2  6  1  0  0  0  0
  2  4  1  0  0  0  0
  3  2  1  0  0  0  0
  5  2  1  0  0  0  0
  6  7  1  0  0  0  0
  6  8  1  0  0  0  0
  9 10  1  6  0  0  0
  9 11  1  0  0  0  0
  9  6  1  0  0  0  0
 11 12  1  0  0  0  0
 12 14  2  0  0  0  0
 12 13  1  0  0  0  0
 14 15  1  0  0  0  0
 16 17  1  0  0  0  0
 16 14  1  0  0  0  0
 18 16  2  0  0  0  0
 19 18  1  0  0  0  0
 20 18  1  0  0  0  0
 20 11  2  0  0  0  0
 21 20  1  0  0  0  0
 22 31  2  0  0  0  0
 22 23  1  0  0  0  0
 23 25  2  0  0  0  0
 24 23  1  0  0  0  0
 25 26  1  0  0  0  0
 27 25  1  0  0  0  0
 27 28  1  0  0  0  0
 29 27  2  0  0  0  0
 30 29  1  0  0  0  0
 31 29  1  0  0  0  0
 32 31  1  0  0  0  0
 33  1  1  0  0  0  0
 34 33  1  0  0  0  0
 34 35  1  0  0  0  0
 36 34  2  0  0  0  0
 37 36  1  0  0  0  0
 38 40  2  0  0  0  0
 38 36  1  0  0  0  0
 39 38  1  0  0  0  0
 40 42  1  0  0  0  0
 41 40  1  0  0  0  0
 42 43  1  0  0  0  0
 42 33  2  0  0  0  0
M  END
