1,4
q = 0.0, confidence = 0.97

 63 64  0  0  1  0  0  0  0  0999 V2000
   -0.8256   -0.1498    0.6931 P   0  0  2  0  0  0  0  0  0  0  0  0
    1.9111    0.8685   -0.0780 P   0  0  0  0  0  4  0  0  0  0  0  0
   -3.5468    0.0032   -1.3430 N   0  0  0  0  0  0  0  0  0  0  0  0
    1.3747   -0.0355   -1.2403 O   0  0  0  0  0  1  0  0  0  0  0  0
   -0.1182    2.4327    1.0934 O   0  0  0  0  0  0  0  0  0  0  0  0
    0.4887    1.1475    1.1508 C   0  0  1  0  0  0  0  0  0  0  0  0
    0.8651    0.9899    2.1807 H   0  0  0  0  0  0  0  0  0  0  0  0
   -1.2952    2.4388    0.3793 C   0  0  0  0  0  0  0  0  0  0  0  0
   -1.9641    3.6522    0.1958 C   0  0  0  0  0  0  0  0  0  0  0  0
   -1.5346    4.5875    0.5777 H   0  0  0  0  0  0  0  0  0  0  0  0
   -3.1971    3.6008   -0.4743 C   0  0  0  0  0  0  0  0  0  0  0  0
   -3.7576    4.5333   -0.6417 H   0  0  0  0  0  0  0  0  0  0  0  0
   -3.7185    2.4027   -0.9681 C   0  0  0  0  0  0  0  0  0  0  0  0
   -4.6584    2.4262   -1.5329 H   0  0  0  0  0  0  0  0  0  0  0  0
   -3.0239    1.1659   -0.8150 C   0  0  0  0  0  0  0  0  0  0  0  0
   -1.7920    1.1977   -0.0819 C   0  0  0  0  0  0  0  0  0  0  0  0
   -2.6993   -1.0506   -1.8896 C   0  0  0  0  0  0  0  0  0  0  0  0
   -1.6587   -0.6921   -2.0077 H   0  0  0  0  0  0  0  0  0  0  0  0
   -3.0667   -1.3295   -2.9001 H   0  0  0  0  0  0  0  0  0  0  0  0
   -2.6705   -1.9676   -1.2622 H   0  0  0  0  0  0  0  0  0  0  0  0
   -4.9424   -0.0623   -1.7298 C   0  0  0  0  0  0  0  0  0  0  0  0
   -5.1382    0.3608   -2.7446 H   0  0  0  0  0  0  0  0  0  0  0  0
   -5.5792    0.4727   -0.9989 H   0  0  0  0  0  0  0  0  0  0  0  0
   -5.2606   -1.1233   -1.7398 H   0  0  0  0  0  0  0  0  0  0  0  0
   -1.7487   -0.5393    2.3086 C   0  0  0  0  0  0  0  0  0  0  0  0
   -2.0797    0.7499    3.0738 C   0  0  0  0  0  0  0  0  0  0  0  0
   -2.6213    0.4784    4.0045 H   0  0  0  0  0  0  0  0  0  0  0  0
   -2.7349    1.4236    2.4877 H   0  0  0  0  0  0  0  0  0  0  0  0
   -1.1758    1.3180    3.3717 H   0  0  0  0  0  0  0  0  0  0  0  0
   -3.0449   -1.2658    1.9029 C   0  0  0  0  0  0  0  0  0  0  0  0
   -3.6910   -0.6264    1.2693 H   0  0  0  0  0  0  0  0  0  0  0  0
   -3.6132   -1.5206    2.8226 H   0  0  0  0  0  0  0  0  0  0  0  0
   -2.8150   -2.2039    1.3603 H   0  0  0  0  0  0  0  0  0  0  0  0
   -0.8499   -1.4636    3.1447 C   0  0  0  0  0  0  0  0  0  0  0  0
   -1.4032   -1.7733    4.0562 H   0  0  0  0  0  0  0  0  0  0  0  0
    0.0743   -0.9511    3.4807 H   0  0  0  0  0  0  0  0  0  0  0  0
   -0.5744   -2.3747    2.5770 H   0  0  0  0  0  0  0  0  0  0  0  0
    2.4065    2.4994   -0.8826 C   0  0  0  0  0  0  0  0  0  0  0  0
    3.6824    2.2615   -1.7150 C   0  0  0  0  0  0  0  0  0  0  0  0
    3.8787    3.1725   -2.3180 H   0  0  0  0  0  0  0  0  0  0  0  0
    3.5602    1.4114   -2.4142 H   0  0  0  0  0  0  0  0  0  0  0  0
    4.5759    2.0820   -1.0872 H   0  0  0  0  0  0  0  0  0  0  0  0
    2.6199    3.6325    0.1362 C   0  0  0  0  0  0  0  0  0  0  0  0
    2.8211    4.5698   -0.4239 H   0  0  0  0  0  0  0  0  0  0  0  0
    3.4876    3.4540    0.7972 H   0  0  0  0  0  0  0  0  0  0  0  0
    1.7223    3.7980    0.7603 H   0  0  0  0  0  0  0  0  0  0  0  0
    1.2587    2.8559   -1.8523 C   0  0  0  0  0  0  0  0  0  0  0  0
    1.0609    2.0295   -2.5601 H   0  0  0  0  0  0  0  0  0  0  0  0
    1.5634    3.7527   -2.4308 H   0  0  0  0  0  0  0  0  0  0  0  0
    0.3160    3.0992   -1.3303 H   0  0  0  0  0  0  0  0  0  0  0  0
    3.2923   -0.0063    0.8797 C   0  0  0  0  0  0  0  0  0  0  0  0
    2.6746   -1.0307    1.8536 C   0  0  0  0  0  0  0  0  0  0  0  0
    3.4970   -1.6496    2.2679 H   0  0  0  0  0  0  0  0  0  0  0  0
    1.9629   -1.7194    1.3486 H   0  0  0  0  0  0  0  0  0  0  0  0
    2.1643   -0.5528    2.7130 H   0  0  0  0  0  0  0  0  0  0  0  0
    4.1394   -0.7737   -0.1555 C   0  0  0  0  0  0  0  0  0  0  0  0
    4.9280   -1.3318    0.3910 H   0  0  0  0  0  0  0  0  0  0  0  0
    4.6419   -0.1039   -0.8768 H   0  0  0  0  0  0  0  0  0  0  0  0
    3.5241   -1.5060   -0.7193 H   0  0  0  0  0  0  0  0  0  0  0  0
    4.1376    0.9976    1.6804 C   0  0  0  0  0  0  0  0  0  0  0  0
    4.7156    1.6823    1.0312 H   0  0  0  0  0  0  0  0  0  0  0  0
    4.8683    0.4315    2.2948 H   0  0  0  0  0  0  0  0  0  0  0  0
    3.5266    1.6068    2.3786 H   0  0  0  0  0  0  0  0  0  0  0  0
  1  6  1  0  0  0  0
  1 25  1  1  0  0  0
  2 51  1  0  0  0  0
  2  6  1  0  0  0  0
  3 15  1  0  0  0  0
  4  2  1  0  0  0  0
  5  6  1  0  0  0  0
  6  7  1  1  0  0  0
  8  5  1  0  0  0  0
  9  8  1  0  0  0  0
  9 10  1  0  0  0  0
 11  9  2  0  0  0  0
 12 11  1  0  0  0  0
 13 15  2  0  0  0  0
 13 11  1  0  0  0  0
 14 13  1  0  0  0  0
 15 16  1  0  0  0  0
 16  8  2  0  0  0  0
 16  1  1  0  0  0  0
 17  3  1  0  0  0  0
 17 20  1  0  0  0  0
 18 17  1  0  0  0  0
 19 17  1  0  0  0  0
 21  3  1  0  0  0  0
 21 23  1  0  0  0  0
 22 21  1  0  0  0  0
 24 21  1  0  0  0  0
 25 26  1  0  0  0  0
 25 34  1  0  0  0  0
 26 29  1  0  0  0  0
 26 27  1  0  0  0  0
 28 26  1  0  0  0  0
 30 25  1  0  0  0  0
 30 32  1  0  0  0  0
 31 30  1  0  0  0  0
 33 30  1  0  0  0  0
 34 36  1  0  0  0  0
 34 35  1  0  0  0  0
 37 34  1  0  0  0  0
 38  2  1  0  0  0  0
 38 43  1  0  0  0  0
 39 42  1  0  0  0  0
 39 38  1  0  0  0  0
 40 39  1  0  0  0  0
 41 39  1  0  0  0  0
 43 46  1  0  0  0  0
 43 45  1  0  0  0  0
 44 43  1  0  0  0  0
 47 50  1  0  0  0  0
 47 38  1  0  0  0  0
 48 47  1  0  0  0  0
 49 47  1  0  0  0  0
 51 60  1  0  0  0  0
 51 52  1  0  0  0  0
 52 53  1  0  0  0  0
 52 55  1  0  0  0  0
 54 52  1  0  0  0  0
 56 57  1  0  0  0  0
 56 51  1  0  0  0  0
 58 56  1  0  0  0  0
 59 56  1  0  0  0  0
 60 62  1  0  0  0  0
 60 63  1  0  0  0  0
 61 60  1  0  0  0  0
M  END
