1,2
q = -1.0, confidence = 0.0

 40 40  0  0  0  0  0  0  0  0999 V2000
    2.2044    0.8182   -0.0402 P   0  0  0  0  0  0  0  0  0  0  0  0
    0.7425   -1.6896   -0.8290 O   0  5  0  0  0  0  0  0  0  0  0  0
    1.3409   -3.6450    0.0591 O   0  0  0  0  0  0  0  0  0  0  0  0
    1.5948   -2.4646   -0.1939 C   0  0  0  0  0  0  0  0  0  0  0  0
    3.0040   -1.9368    0.0526 C   0  0  0  0  0  0  0  0  0  0  0  0
    3.4174   -0.5776   -0.0075 C   0  0  0  0  0  0  0  0  0  0  0  0
    4.8035   -0.2976   -0.0176 C   0  0  0  0  0  0  0  0  0  0  0  0
    5.7622   -1.3132    0.0939 C   0  0  0  0  0  0  0  0  0  0  0  0
    5.3473   -2.6450    0.2355 C   0  0  0  0  0  0  0  0  0  0  0  0
    3.9821   -2.9432    0.2081 C   0  0  0  0  0  0  0  0  0  0  0  0
    2.4813    1.6995   -1.7128 C   0  0  0  0  0  0  0  0  0  0  0  0
    2.6295    0.5754   -2.7570 C   0  0  0  0  0  0  0  0  0  0  0  0
    1.2016    2.5028   -2.0173 C   0  0  0  0  0  0  0  0  0  0  0  0
    3.7099    2.6202   -1.7534 C   0  0  0  0  0  0  0  0  0  0  0  0
    2.5918    1.9013    1.4953 C   0  0  0  0  0  0  0  0  0  0  0  0
    1.9196    3.2779    1.3355 C   0  0  0  0  0  0  0  0  0  0  0  0
    4.0844    2.1057    1.8007 C   0  0  0  0  0  0  0  0  0  0  0  0
    1.9478    1.1290    2.6660 C   0  0  0  0  0  0  0  0  0  0  0  0
    5.1500    0.7381   -0.1103 H   0  0  0  0  0  0  0  0  0  0  0  0
    6.8323   -1.0564    0.0808 H   0  0  0  0  0  0  0  0  0  0  0  0
    6.0877   -3.4518    0.3462 H   0  0  0  0  0  0  0  0  0  0  0  0
    3.6150   -3.9776    0.2755 H   0  0  0  0  0  0  0  0  0  0  0  0
    2.5837    1.0215   -3.7728 H   0  0  0  0  0  0  0  0  0  0  0  0
    3.5949    0.0421   -2.6588 H   0  0  0  0  0  0  0  0  0  0  0  0
    1.8174   -0.1742   -2.6673 H   0  0  0  0  0  0  0  0  0  0  0  0
    1.3272    3.0234   -2.9904 H   0  0  0  0  0  0  0  0  0  0  0  0
    0.9562    3.2599   -1.2501 H   0  0  0  0  0  0  0  0  0  0  0  0
    0.3250    1.8283   -2.1017 H   0  0  0  0  0  0  0  0  0  0  0  0
    3.7895    3.0611   -2.7701 H   0  0  0  0  0  0  0  0  0  0  0  0
    4.6544    2.0746   -1.5644 H   0  0  0  0  0  0  0  0  0  0  0  0
    3.6335    3.4597   -1.0365 H   0  0  0  0  0  0  0  0  0  0  0  0
    1.9944    3.8111    2.3073 H   0  0  0  0  0  0  0  0  0  0  0  0
    2.4365    3.9046    0.5827 H   0  0  0  0  0  0  0  0  0  0  0  0
    0.8491    3.2034    1.0699 H   0  0  0  0  0  0  0  0  0  0  0  0
    4.1589    2.7759    2.6834 H   0  0  0  0  0  0  0  0  0  0  0  0
    4.5997    1.1616    2.0582 H   0  0  0  0  0  0  0  0  0  0  0  0
    4.6291    2.5989    0.9725 H   0  0  0  0  0  0  0  0  0  0  0  0
    2.1713    1.6609    3.6152 H   0  0  0  0  0  0  0  0  0  0  0  0
    2.3554    0.1003    2.7529 H   0  0  0  0  0  0  0  0  0  0  0  0
    0.8489    1.0718    2.5519 H   0  0  0  0  0  0  0  0  0  0  0  0
  1  6  1  0  0  0  0
  1 15  1  0  0  0  0
  2  4  1  0  0  0  0
  4  5  1  0  0  0  0
  4  3  2  0  0  0  0
  5 10  1  0  0  0  0
  6  5  2  0  0  0  0
  7  6  1  0  0  0  0
  7  8  2  0  0  0  0
  8  9  1  0  0  0  0
  9 21  1  0  0  0  0
 10  9  2  0  0  0  0
 10 22  1  0  0  0  0
 11  1  1  0  0  0  0
 12 25  1  0  0  0  0
 12 24  1  0  0  0  0
 12 11  1  0  0  0  0
 13 11  1  0  0  0  0
 13 27  1  0  0  0  0
 14 11  1  0  0  0  0
 14 30  1  0  0  0  0
 14 31  1  0  0  0  0
 15 17  1  0  0  0  0
 15 18  1  0  0  0  0
 16 15  1  0  0  0  0
 16 32  1  0  0  0  0
 17 36  1  0  0  0  0
 17 35  1  0  0  0  0
 18 39  1  0  0  0  0
 18 38  1  0  0  0  0
 19  7  1  0  0  0  0
 20  8  1  0  0  0  0
 23 12  1  0  0  0  0
 26 13  1  0  0  0  0
 28 13  1  0  0  0  0
 29 14  1  0  0  0  0
 33 16  1  0  0  0  0
 34 16  1  0  0  0  0
 37 17  1  0  0  0  0
 40 18  1  0  0  0  0
M  CHG  1   2  -1
M  END
