1,2
q = -1.0

 62 68  0  0  1  0  0  0  0  0999 V2000
    0.7321   -0.0035    0.3191 P   0  0  2  0  0  0  0  0  0  0  0  0
   -1.7408    0.0750    1.8557 O   0  5  0  0  0  0  0  0  0  0  0  0
    0.6603   -0.0012    2.1394 C   0  0  0  0  0  0  0  0  0  0  0  0
    2.2806    2.9491   -2.2464 C   0  0  2  0  0  0  0  0  0  0  0  0
    2.3419    2.9481   -3.3555 H   0  0  0  0  0  0  0  0  0  0  0  0
    1.5160   -1.6252   -0.2534 C   0  0  2  0  0  0  0  0  0  0  0  0
    1.6157    1.5674   -0.2378 C   0  0  2  0  0  0  0  0  0  0  0  0
    3.6876    3.1394   -1.6473 C   0  0  0  0  0  0  0  0  0  0  0  0
    4.1276    4.0990   -1.9950 H   0  0  0  0  0  0  0  0  0  0  0  0
    4.3634    2.3289   -1.9972 H   0  0  0  0  0  0  0  0  0  0  0  0
    0.7013    2.7342    0.2283 C   0  0  0  0  0  0  0  0  0  0  0  0
   -0.3205    2.5860   -0.1822 H   0  0  0  0  0  0  0  0  0  0  0  0
    0.6084    2.7158    1.3350 H   0  0  0  0  0  0  0  0  0  0  0  0
    1.3601    4.0908   -1.7782 C   0  0  0  0  0  0  0  0  0  0  0  0
    1.7501    5.0678   -2.1372 H   0  0  0  0  0  0  0  0  0  0  0  0
    0.3461    3.9635   -2.2134 H   0  0  0  0  0  0  0  0  0  0  0  0
    1.7147    1.5917   -1.7823 C   0  0  0  0  0  0  0  0  0  0  0  0
    0.7195    1.3836   -2.2301 H   0  0  0  0  0  0  0  0  0  0  0  0
    2.3993    0.7883   -2.1242 H   0  0  0  0  0  0  0  0  0  0  0  0
   -0.6773    0.0431    2.6481 C   0  0  0  0  0  0  0  0  0  0  0  0
    3.0193    1.7795    0.3736 C   0  0  0  0  0  0  0  0  0  0  0  0
    2.9540    1.7817    1.4806 H   0  0  0  0  0  0  0  0  0  0  0  0
    3.7033    0.9571    0.0823 H   0  0  0  0  0  0  0  0  0  0  0  0
    3.5980    3.1290   -0.1093 C   0  0  2  0  0  0  0  0  0  0  0  0
    4.6121    3.2554    0.3266 H   0  0  0  0  0  0  0  0  0  0  0  0
    0.9959   -4.3105   -1.4189 C   0  0  0  0  0  0  0  0  0  0  0  0
    1.3257   -5.3213   -1.7433 H   0  0  0  0  0  0  0  0  0  0  0  0
   -0.0915   -4.2364   -1.6334 H   0  0  0  0  0  0  0  0  0  0  0  0
    2.7558   -4.2436    0.3851 C   0  0  0  0  0  0  0  0  0  0  0  0
    3.1266   -5.2513    0.0986 H   0  0  0  0  0  0  0  0  0  0  0  0
    2.9394   -4.1280    1.4751 H   0  0  0  0  0  0  0  0  0  0  0  0
    1.2719   -1.8267   -1.7720 C   0  0  0  0  0  0  0  0  0  0  0  0
    0.2014   -1.6699   -2.0164 H   0  0  0  0  0  0  0  0  0  0  0  0
    1.8292   -1.0639   -2.3504 H   0  0  0  0  0  0  0  0  0  0  0  0
    3.5181   -3.1598   -0.3995 C   0  0  1  0  0  0  0  0  0  0  0  0
    4.6058   -3.2367   -0.1857 H   0  0  0  0  0  0  0  0  0  0  0  0
    0.7533   -2.7338    0.5226 C   0  0  0  0  0  0  0  0  0  0  0  0
   -0.3362   -2.6308    0.3273 H   0  0  0  0  0  0  0  0  0  0  0  0
    0.9006   -2.6002    1.6142 H   0  0  0  0  0  0  0  0  0  0  0  0
    1.2792    4.0824   -0.2403 C   0  0  2  0  0  0  0  0  0  0  0  0
    0.6073    4.8966    0.1055 H   0  0  0  0  0  0  0  0  0  0  0  0
    1.5569   -0.0598    4.4133 C   0  0  0  0  0  0  0  0  0  0  0  0
    2.4164   -0.1045    5.0977 H   0  0  0  0  0  0  0  0  0  0  0  0
    0.2400   -0.0022    4.9169 C   0  0  0  0  0  0  0  0  0  0  0  0
    0.0723    0.0003    6.0055 H   0  0  0  0  0  0  0  0  0  0  0  0
    3.2687   -3.3488   -1.9080 C   0  0  0  0  0  0  0  0  0  0  0  0
    3.6446   -4.3431   -2.2327 H   0  0  0  0  0  0  0  0  0  0  0  0
    3.8319   -2.5853   -2.4874 H   0  0  0  0  0  0  0  0  0  0  0  0
    1.7605   -3.2258   -2.1978 C   0  0  1  0  0  0  0  0  0  0  0  0
    1.5772   -3.3470   -3.2866 H   0  0  0  0  0  0  0  0  0  0  0  0
    3.0277   -1.7599    0.0352 C   0  0  0  0  0  0  0  0  0  0  0  0
    3.2327   -1.6116    1.1157 H   0  0  0  0  0  0  0  0  0  0  0  0
    3.5945   -0.9846   -0.5208 H   0  0  0  0  0  0  0  0  0  0  0  0
    1.2492   -4.1250    0.0881 C   0  0  1  0  0  0  0  0  0  0  0  0
    0.6922   -4.8959    0.6621 H   0  0  0  0  0  0  0  0  0  0  0  0
    2.6844    4.2769    0.3577 C   0  0  0  0  0  0  0  0  0  0  0  0
    2.6280    4.2934    1.4674 H   0  0  0  0  0  0  0  0  0  0  0  0
    3.1068    5.2544    0.0391 H   0  0  0  0  0  0  0  0  0  0  0  0
    1.7562   -0.0587    3.0281 C   0  0  0  0  0  0  0  0  0  0  0  0
    2.7804   -0.1071    2.6298 H   0  0  0  0  0  0  0  0  0  0  0  0
   -0.8591    0.0481    4.0593 C   0  0  0  0  0  0  0  0  0  0  0  0
   -1.8875    0.0873    4.4480 H   0  0  0  0  0  0  0  0  0  0  0  0
  1  3  1  1  0  0  0
  2 20  1  0  0  0  0
  3 20  2  0  0  0  0
  3 59  1  0  0  0  0
  4  5  1  6  0  0  0
  4 17  1  0  0  0  0
  4 14  1  0  0  0  0
  4  8  1  0  0  0  0
  6 51  1  0  0  0  0
  6  1  1  1  0  0  0
  6 37  1  0  0  0  0
  7 11  1  0  0  0  0
  7  1  1  1  0  0  0
  7 21  1  0  0  0  0
  8 24  1  0  0  0  0
  9  8  1  0  0  0  0
 10  8  1  0  0  0  0
 11 13  1  0  0  0  0
 12 11  1  0  0  0  0
 14 40  1  0  0  0  0
 15 14  1  0  0  0  0
 16 14  1  0  0  0  0
 17  7  1  0  0  0  0
 18 17  1  0  0  0  0
 19 17  1  0  0  0  0
 20 61  1  0  0  0  0
 21 22  1  0  0  0  0
 23 21  1  0  0  0  0
 24 25  1  1  0  0  0
 24 56  1  0  0  0  0
 24 21  1  0  0  0  0
 26 54  1  0  0  0  0
 27 26  1  0  0  0  0
 28 26  1  0  0  0  0
 29 31  1  0  0  0  0
 30 29  1  0  0  0  0
 32  6  1  0  0  0  0
 33 32  1  0  0  0  0
 34 32  1  0  0  0  0
 35 36  1  1  0  0  0
 35 51  1  0  0  0  0
 35 29  1  0  0  0  0
 37 39  1  0  0  0  0
 38 37  1  0  0  0  0
 40 41  1  1  0  0  0
 40 11  1  0  0  0  0
 40 56  1  0  0  0  0
 42 44  1  0  0  0  0
 42 43  1  0  0  0  0
 44 45  1  0  0  0  0
 46 35  1  0  0  0  0
 47 46  1  0  0  0  0
 48 46  1  0  0  0  0
 49 50  1  6  0  0  0
 49 46  1  0  0  0  0
 49 32  1  0  0  0  0
 49 26  1  0  0  0  0
 51 52  1  0  0  0  0
 53 51  1  0  0  0  0
 54 29  1  0  0  0  0
 54 37  1  0  0  0  0
 54 55  1  1  0  0  0
 56 57  1  0  0  0  0
 58 56  1  0  0  0  0
 59 42  2  0  0  0  0
 60 59  1  0  0  0  0
 61 62  1  0  0  0  0
 61 44  2  0  0  0  0
M  CHG  1   2  -1
M  END
