2,13
q = 0.0, confidence = 0.978

 67 70  0  0  0  0  0  0  0  0999 V2000
   -1.7474   -0.5198    0.1911 P   0  0  1  0  0  4  0  0  0  0  0  0
    1.6033   -0.1996    0.1306 P   0  0  0  0  0  0  0  0  0  0  0  0
   -1.4149    2.1375    1.1375 C   0  0  0  0  0  0  0  0  0  0  0  0
   -1.2695    1.7121    2.1429 H   0  0  0  0  0  0  0  0  0  0  0  0
   -1.5389    4.0678   -0.3309 C   0  0  0  0  0  0  0  0  0  0  0  0
   -1.5137    5.1591   -0.4729 H   0  0  0  0  0  0  0  0  0  0  0  0
   -1.5957    1.2884    0.0284 C   0  0  0  0  0  0  0  0  0  0  0  0
    3.2971   -0.9041    0.3091 C   0  0  0  0  0  0  0  0  0  0  0  0
    0.7060   -0.9517    1.5803 C   0  0  0  0  0  0  0  0  0  0  0  0
   -3.3684   -0.8747    0.5280 N   0  0  0  0  0  0  0  0  0  0  0  0
    0.8084   -2.0806    3.7547 C   0  0  0  0  0  0  0  0  0  0  0  0
    1.4127   -2.4903    4.5783 H   0  0  0  0  0  0  0  0  0  0  0  0
   -1.2878   -1.2725   -1.0682 O   0  0  0  0  0  1  0  0  0  0  0  0
   -1.3938    3.5281    0.9568 C   0  0  0  0  0  0  0  0  0  0  0  0
   -1.2421    4.1906    1.8217 H   0  0  0  0  0  0  0  0  0  0  0  0
   -4.9707    1.0642    0.6576 C   0  0  0  0  0  0  0  0  0  0  0  0
   -4.3407    1.6501   -0.0387 H   0  0  0  0  0  0  0  0  0  0  0  0
   -5.4530    1.7687    1.3648 H   0  0  0  0  0  0  0  0  0  0  0  0
   -5.7751    0.5744    0.0724 H   0  0  0  0  0  0  0  0  0  0  0  0
    1.4465   -1.4949    2.6503 C   0  0  0  0  0  0  0  0  0  0  0  0
    2.5456   -1.4679    2.6122 H   0  0  0  0  0  0  0  0  0  0  0  0
   -1.3403   -1.6405    2.7290 C   0  0  0  0  0  0  0  0  0  0  0  0
   -2.4349   -1.7356    2.7261 H   0  0  0  0  0  0  0  0  0  0  0  0
   -1.7218    1.8283   -1.2705 C   0  0  0  0  0  0  0  0  0  0  0  0
   -1.8060    1.1585   -2.1430 H   0  0  0  0  0  0  0  0  0  0  0  0
    3.4875   -2.2183   -0.1688 C   0  0  0  0  0  0  0  0  0  0  0  0
    2.6404   -2.7540   -0.6272 H   0  0  0  0  0  0  0  0  0  0  0  0
   -4.9933   -0.7436    2.4323 C   0  0  0  0  0  0  0  0  0  0  0  0
   -5.8243   -1.2852    1.9372 H   0  0  0  0  0  0  0  0  0  0  0  0
   -5.4484   -0.0388    3.1562 H   0  0  0  0  0  0  0  0  0  0  0  0
   -4.4002   -1.4856    3.0022 H   0  0  0  0  0  0  0  0  0  0  0  0
    4.7472   -2.8242   -0.0797 C   0  0  0  0  0  0  0  0  0  0  0  0
    4.8871   -3.8501   -0.4527 H   0  0  0  0  0  0  0  0  0  0  0  0
    1.9632    1.9335    1.9966 C   0  0  0  0  0  0  0  0  0  0  0  0
    1.9679    1.1634    2.7828 H   0  0  0  0  0  0  0  0  0  0  0  0
    1.9159    3.9102    0.0050 C   0  0  0  0  0  0  0  0  0  0  0  0
    1.8817    4.6829   -0.7776 H   0  0  0  0  0  0  0  0  0  0  0  0
    1.7528    2.5625   -0.3473 C   0  0  0  0  0  0  0  0  0  0  0  0
    1.5714    2.2720   -1.3933 H   0  0  0  0  0  0  0  0  0  0  0  0
    4.3871   -0.1953    0.8484 C   0  0  0  0  0  0  0  0  0  0  0  0
    4.2514    0.8366    1.2041 H   0  0  0  0  0  0  0  0  0  0  0  0
    5.6516   -0.8032    0.9237 C   0  0  0  0  0  0  0  0  0  0  0  0
    6.5017   -0.2410    1.3393 H   0  0  0  0  0  0  0  0  0  0  0  0
   -4.1261   -1.8135   -0.3502 C   0  0  0  0  0  0  0  0  0  0  0  0
   -5.1487   -1.8124    0.0819 H   0  0  0  0  0  0  0  0  0  0  0  0
   -4.1329    0.0278    1.4208 C   0  0  0  0  0  0  0  0  0  0  0  0
   -3.3729    0.5858    2.0085 H   0  0  0  0  0  0  0  0  0  0  0  0
   -1.6920    3.2195   -1.4411 C   0  0  0  0  0  0  0  0  0  0  0  0
   -1.7794    3.6414   -2.4536 H   0  0  0  0  0  0  0  0  0  0  0  0
    2.1214    3.2833    2.3437 C   0  0  0  0  0  0  0  0  0  0  0  0
    2.2574    3.5634    3.3996 H   0  0  0  0  0  0  0  0  0  0  0  0
    1.7865    1.5645    0.6465 C   0  0  0  0  0  0  0  0  0  0  0  0
   -0.7160   -1.0277    1.6268 C   0  0  0  0  0  0  0  0  0  0  0  0
   -3.5865   -3.2435   -0.2359 C   0  0  0  0  0  0  0  0  0  0  0  0
   -2.5632   -3.3049   -0.6539 H   0  0  0  0  0  0  0  0  0  0  0  0
   -4.2325   -3.9439   -0.8027 H   0  0  0  0  0  0  0  0  0  0  0  0
   -3.5602   -3.5730    0.8222 H   0  0  0  0  0  0  0  0  0  0  0  0
    5.8323   -2.1172    0.4669 C   0  0  0  0  0  0  0  0  0  0  0  0
    6.8246   -2.5898    0.5256 H   0  0  0  0  0  0  0  0  0  0  0  0
   -0.5896   -2.1552    3.7958 C   0  0  0  0  0  0  0  0  0  0  0  0
   -1.0992   -2.6284    4.6487 H   0  0  0  0  0  0  0  0  0  0  0  0
    2.1032    4.2734    1.3476 C   0  0  0  0  0  0  0  0  0  0  0  0
    2.2259    5.3325    1.6214 H   0  0  0  0  0  0  0  0  0  0  0  0
   -4.2425   -1.3454   -1.8093 C   0  0  0  0  0  0  0  0  0  0  0  0
   -4.6351   -0.3114   -1.8655 H   0  0  0  0  0  0  0  0  0  0  0  0
   -4.9421   -2.0053   -2.3619 H   0  0  0  0  0  0  0  0  0  0  0  0
   -3.2595   -1.3722   -2.3175 H   0  0  0  0  0  0  0  0  0  0  0  0
  1 13  1  6  0  0  0
  1 10  1  0  0  0  0
  1 53  1  0  0  0  0
  2  8  1  0  0  0  0
  2 52  1  0  0  0  0
  2  9  1  0  0  0  0
  3  4  1  0  0  0  0
  5 14  2  0  0  0  0
  6  5  1  0  0  0  0
  7  1  1  0  0  0  0
  7  3  2  0  0  0  0
  8 40  1  0  0  0  0
  9 53  2  0  0  0  0
  9 20  1  0  0  0  0
 10 46  1  0  0  0  0
 11 60  1  0  0  0  0
 11 12  1  0  0  0  0
 14  3  1  0  0  0  0
 14 15  1  0  0  0  0
 16 18  1  0  0  0  0
 16 46  1  0  0  0  0
 17 16  1  0  0  0  0
 19 16  1  0  0  0  0
 20 11  2  0  0  0  0
 21 20  1  0  0  0  0
 22 60  2  0  0  0  0
 23 22  1  0  0  0  0
 24  7  1  0  0  0  0
 25 24  1  0  0  0  0
 26 32  1  0  0  0  0
 26  8  2  0  0  0  0
 27 26  1  0  0  0  0
 28 31  1  0  0  0  0
 28 30  1  0  0  0  0
 29 28  1  0  0  0  0
 32 58  2  0  0  0  0
 33 32  1  0  0  0  0
 34 50  1  0  0  0  0
 34 35  1  0  0  0  0
 36 62  1  0  0  0  0
 37 36  1  0  0  0  0
 38 36  2  0  0  0  0
 38 52  1  0  0  0  0
 39 38  1  0  0  0  0
 40 42  2  0  0  0  0
 40 41  1  0  0  0  0
 42 43  1  0  0  0  0
 44 54  1  0  0  0  0
 44 45  1  0  0  0  0
 44 10  1  0  0  0  0
 46 47  1  0  0  0  0
 46 28  1  0  0  0  0
 48 24  2  0  0  0  0
 48  5  1  0  0  0  0
 49 48  1  0  0  0  0
 50 51  1  0  0  0  0
 52 34  2  0  0  0  0
 53 22  1  0  0  0  0
 54 57  1  0  0  0  0
 55 54  1  0  0  0  0
 56 54  1  0  0  0  0
 58 59  1  0  0  0  0
 58 42  1  0  0  0  0
 60 61  1  0  0  0  0
 62 63  1  0  0  0  0
 62 50  2  0  0  0  0
 64 44  1  0  0  0  0
 65 64  1  0  0  0  0
 66 64  1  0  0  0  0
 67 64  1  0  0  0  0
M  END
