1,3
q = 0.0, confidence = 1.0

 39 42  0  0  1  0  0  0  0  0999 V2000
    1.6807   -0.5109   -0.0106 P   0  0  0  0  0  0  0  0  0  0  0  0
    3.0422    0.6288    0.0126 N   0  0  0  0  0  0  0  0  0  0  0  0
    1.5676    2.4317   -0.0844 O   0  0  0  0  0  1  0  0  0  0  0  0
    2.7274    1.9723   -0.0454 C   0  0  2  0  0  3  0  0  0  0  0  0
    4.0006    2.7180   -0.0543 C   0  0  0  0  0  0  0  0  0  0  0  0
    4.2301    4.0998   -0.0899 C   0  0  0  0  0  0  0  0  0  0  0  0
    3.3824    4.7998   -0.1164 H   0  0  0  0  0  0  0  0  0  0  0  0
    5.5617    4.5397   -0.0891 C   0  0  0  0  0  0  0  0  0  0  0  0
    5.7828    5.6172   -0.1153 H   0  0  0  0  0  0  0  0  0  0  0  0
    6.6245    3.6137   -0.0548 C   0  0  0  0  0  0  0  0  0  0  0  0
    7.6616    3.9825   -0.0547 H   0  0  0  0  0  0  0  0  0  0  0  0
    6.3854    2.2279   -0.0210 C   0  0  0  0  0  0  0  0  0  0  0  0
    7.2244    1.5159    0.0045 H   0  0  0  0  0  0  0  0  0  0  0  0
    5.0580    1.7866   -0.0210 C   0  0  0  0  0  0  0  0  0  0  0  0
    4.4847    0.3893    0.0057 C   0  0  0  0  0  0  0  0  0  0  0  0
    4.7817   -0.2056   -0.8864 H   0  0  0  0  0  0  0  0  0  0  0  0
    4.7961   -0.1841    0.9072 H   0  0  0  0  0  0  0  0  0  0  0  0
    2.1466   -1.6714   -1.3665 C   0  0  0  0  0  0  0  0  0  0  0  0
    3.2193   -2.5783   -1.2021 C   0  0  0  0  0  0  0  0  0  0  0  0
    3.7604   -2.6259   -0.2447 H   0  0  0  0  0  0  0  0  0  0  0  0
    3.5809   -3.4392   -2.2475 C   0  0  0  0  0  0  0  0  0  0  0  0
    4.4169   -4.1426   -2.1127 H   0  0  0  0  0  0  0  0  0  0  0  0
    2.8691   -3.4103   -3.4594 C   0  0  0  0  0  0  0  0  0  0  0  0
    3.1491   -4.0930   -4.2767 H   0  0  0  0  0  0  0  0  0  0  0  0
    1.8036   -2.5131   -3.6235 C   0  0  0  0  0  0  0  0  0  0  0  0
    1.2395   -2.4875   -4.5681 H   0  0  0  0  0  0  0  0  0  0  0  0
    1.4408   -1.6400   -2.5854 C   0  0  0  0  0  0  0  0  0  0  0  0
    0.6273   -0.9074   -2.7196 H   0  0  0  0  0  0  0  0  0  0  0  0
    1.9965   -1.5362    1.4834 C   0  0  0  0  0  0  0  0  0  0  0  0
    1.5363   -2.8688    1.5197 C   0  0  0  0  0  0  0  0  0  0  0  0
    1.1044   -3.3256    0.6158 H   0  0  0  0  0  0  0  0  0  0  0  0
    1.6274   -3.6179    2.7015 C   0  0  0  0  0  0  0  0  0  0  0  0
    1.2612   -4.6554    2.7199 H   0  0  0  0  0  0  0  0  0  0  0  0
    2.1777   -3.0407    3.8573 C   0  0  0  0  0  0  0  0  0  0  0  0
    2.2508   -3.6281    4.7854 H   0  0  0  0  0  0  0  0  0  0  0  0
    2.6298   -1.7115    3.8287 C   0  0  0  0  0  0  0  0  0  0  0  0
    3.0502   -1.2517    4.7359 H   0  0  0  0  0  0  0  0  0  0  0  0
    2.5310   -0.9547    2.6514 C   0  0  0  0  0  0  0  0  0  0  0  0
    2.8424    0.0989    2.6408 H   0  0  0  0  0  0  0  0  0  0  0  0
  1  2  1  0  0  0  0
  1 29  1  0  0  0  0
  4  3  1  6  0  0  0
  4  2  1  0  0  0  0
  5  4  1  0  0  0  0
  5 14  1  0  0  0  0
  6  8  1  0  0  0  0
  6  5  2  0  0  0  0
  7  6  1  0  0  0  0
  8 10  2  0  0  0  0
  9  8  1  0  0  0  0
 10 11  1  0  0  0  0
 10 12  1  0  0  0  0
 12 14  2  0  0  0  0
 12 13  1  0  0  0  0
 14 15  1  0  0  0  0
 15  2  1  0  0  0  0
 15 17  1  0  0  0  0
 16 15  1  0  0  0  0
 18 19  1  0  0  0  0
 18  1  1  0  0  0  0
 19 20  1  0  0  0  0
 21 22  1  0  0  0  0
 21 19  2  0  0  0  0
 23 21  1  0  0  0  0
 24 23  1  0  0  0  0
 25 23  2  0  0  0  0
 25 27  1  0  0  0  0
 26 25  1  0  0  0  0
 27 18  2  0  0  0  0
 28 27  1  0  0  0  0
 29 30  2  0  0  0  0
 29 38  1  0  0  0  0
 30 32  1  0  0  0  0
 31 30  1  0  0  0  0
 32 33  1  0  0  0  0
 32 34  2  0  0  0  0
 34 35  1  0  0  0  0
 36 34  1  0  0  0  0
 36 37  1  0  0  0  0
 38 36  2  0  0  0  0
 39 38  1  0  0  0  0
M  END
