1,4
q = 0.0, confidence = 0.994

 31 32  0  0  1  0  0  0  0  0999 V2000
    1.1284   -0.4608   -0.0259 P   0  0  0  0  0  0  0  0  0  0  0  0
    1.9888   -0.6013   -2.6884 C   0  0  0  0  0  0  0  0  0  0  0  0
    1.6145   -1.6361   -2.6748 H   0  0  0  0  0  0  0  0  0  0  0  0
   -0.6599   -2.7972    0.0717 O   0  0  0  0  0  1  0  0  0  0  0  0
    2.5180   -0.0656   -3.8702 C   0  0  0  0  0  0  0  0  0  0  0  0
    2.5634   -0.6860   -4.7775 H   0  0  0  0  0  0  0  0  0  0  0  0
    1.5329   -2.1854   -0.0786 N   0  0  0  0  0  0  0  0  0  0  0  0
    2.5113   -2.4913   -0.1045 H   0  0  0  0  0  0  0  0  0  0  0  0
    0.5490   -3.1258    0.0154 C   0  0  1  0  0  3  0  0  0  0  0  0
    1.9400    0.1876   -1.5190 C   0  0  0  0  0  0  0  0  0  0  0  0
    2.0631    0.1606    1.4064 C   0  0  0  0  0  0  0  0  0  0  0  0
    2.4033    1.5208   -1.5491 C   0  0  0  0  0  0  0  0  0  0  0  0
    2.3629    2.1473   -0.6460 H   0  0  0  0  0  0  0  0  0  0  0  0
    1.3620    0.4095    2.6058 C   0  0  0  0  0  0  0  0  0  0  0  0
    0.2672    0.2877    2.6296 H   0  0  0  0  0  0  0  0  0  0  0  0
    3.4648    0.3287    1.3546 C   0  0  0  0  0  0  0  0  0  0  0  0
    4.0148    0.1498    0.4178 H   0  0  0  0  0  0  0  0  0  0  0  0
    3.4556    0.9863    3.6966 C   0  0  0  0  0  0  0  0  0  0  0  0
    4.0026    1.3140    4.5933 H   0  0  0  0  0  0  0  0  0  0  0  0
    2.0617    0.8231    3.7479 C   0  0  0  0  0  0  0  0  0  0  0  0
    1.5154    1.0240    4.6812 H   0  0  0  0  0  0  0  0  0  0  0  0
    0.9482   -4.5748    0.0698 C   0  0  0  0  0  0  0  0  0  0  0  0
    0.2745   -5.1587   -0.5851 H   0  0  0  0  0  0  0  0  0  0  0  0
    0.7964   -4.9442    1.1049 H   0  0  0  0  0  0  0  0  0  0  0  0
    1.9997   -4.7516   -0.2207 H   0  0  0  0  0  0  0  0  0  0  0  0
    2.9854    1.2586   -3.8967 C   0  0  0  0  0  0  0  0  0  0  0  0
    3.3982    1.6770   -4.8266 H   0  0  0  0  0  0  0  0  0  0  0  0
    4.1554    0.7387    2.5032 C   0  0  0  0  0  0  0  0  0  0  0  0
    5.2469    0.8711    2.4657 H   0  0  0  0  0  0  0  0  0  0  0  0
    2.9253    2.0491   -2.7381 C   0  0  0  0  0  0  0  0  0  0  0  0
    3.2895    3.0869   -2.7575 H   0  0  0  0  0  0  0  0  0  0  0  0
  1 11  1  0  0  0  0
  2  3  1  0  0  0  0
  2 10  1  0  0  0  0
  5  2  2  0  0  0  0
  6  5  1  0  0  0  0
  7  1  1  0  0  0  0
  7  9  1  0  0  0  0
  8  7  1  0  0  0  0
  9 22  1  0  0  0  0
  9  4  1  1  0  0  0
 10  1  1  0  0  0  0
 11 14  1  0  0  0  0
 12 10  2  0  0  0  0
 12 13  1  0  0  0  0
 14 15  1  0  0  0  0
 14 20  2  0  0  0  0
 16 11  2  0  0  0  0
 16 28  1  0  0  0  0
 17 16  1  0  0  0  0
 18 20  1  0  0  0  0
 18 19  1  0  0  0  0
 20 21  1  0  0  0  0
 22 24  1  0  0  0  0
 23 22  1  0  0  0  0
 25 22  1  0  0  0  0
 26  5  1  0  0  0  0
 26 30  2  0  0  0  0
 27 26  1  0  0  0  0
 28 18  2  0  0  0  0
 29 28  1  0  0  0  0
 30 12  1  0  0  0  0
 31 30  1  0  0  0  0
M  END
