1,5
q = 0.0, confidence = 0.994

 35 36  0  0  0  0  0  0  0  0999 V2000
   -1.6431   -2.5964   -0.9606 O   0  0  0  0  0  1  0  0  0  0  0  0
   -3.1348   -2.7179   -0.5262 S   0  0  2  0  0  3  0  0  0  0  0  0
   -3.9741   -1.0764   -0.8975 C   0  0  0  0  0  0  0  0  0  0  0  0
   -3.0461   -0.0644   -1.5551 C   0  0  0  0  0  0  0  0  0  0  0  0
   -1.6414    0.5579   -0.4927 P   0  0  0  0  0  0  0  0  0  0  0  0
   -2.4801    1.1732    1.0160 C   0  0  0  0  0  0  0  0  0  0  0  0
   -3.6644    1.9405    0.9414 C   0  0  0  0  0  0  0  0  0  0  0  0
   -4.3012    2.3665    2.1165 C   0  0  0  0  0  0  0  0  0  0  0  0
   -3.7637    2.0332    3.3710 C   0  0  0  0  0  0  0  0  0  0  0  0
   -2.5879    1.2706    3.4517 C   0  0  0  0  0  0  0  0  0  0  0  0
   -1.9482    0.8385    2.2799 C   0  0  0  0  0  0  0  0  0  0  0  0
   -1.0374    2.0051   -1.4343 C   0  0  0  0  0  0  0  0  0  0  0  0
   -1.2858    3.3352   -1.0432 C   0  0  0  0  0  0  0  0  0  0  0  0
   -0.7751    4.3930   -1.8115 C   0  0  0  0  0  0  0  0  0  0  0  0
   -0.0224    4.1299   -2.9660 C   0  0  0  0  0  0  0  0  0  0  0  0
    0.2316    2.8033   -3.3530 C   0  0  0  0  0  0  0  0  0  0  0  0
   -0.2648    1.7419   -2.5856 C   0  0  0  0  0  0  0  0  0  0  0  0
   -3.1408   -2.6297    1.2936 C   0  0  0  0  0  0  0  0  0  0  0  0
   -4.8035   -1.3464   -1.5814 H   0  0  0  0  0  0  0  0  0  0  0  0
   -4.4070   -0.6943    0.0487 H   0  0  0  0  0  0  0  0  0  0  0  0
   -2.5801   -0.4748   -2.4740 H   0  0  0  0  0  0  0  0  0  0  0  0
   -3.6515    0.8111   -1.8702 H   0  0  0  0  0  0  0  0  0  0  0  0
   -4.0938    2.2161   -0.0343 H   0  0  0  0  0  0  0  0  0  0  0  0
   -5.2221    2.9651    2.0519 H   0  0  0  0  0  0  0  0  0  0  0  0
   -4.2654    2.3708    4.2901 H   0  0  0  0  0  0  0  0  0  0  0  0
   -2.1637    1.0108    4.4329 H   0  0  0  0  0  0  0  0  0  0  0  0
   -1.0246    0.2397    2.3347 H   0  0  0  0  0  0  0  0  0  0  0  0
   -1.8632    3.5506   -0.1322 H   0  0  0  0  0  0  0  0  0  0  0  0
   -0.9642    5.4311   -1.5002 H   0  0  0  0  0  0  0  0  0  0  0  0
    0.3778    4.9626   -3.5632 H   0  0  0  0  0  0  0  0  0  0  0  0
    0.8323    2.5947   -4.2506 H   0  0  0  0  0  0  0  0  0  0  0  0
   -0.0344    0.7018   -2.8678 H   0  0  0  0  0  0  0  0  0  0  0  0
   -2.6044   -3.5293    1.6500 H   0  0  0  0  0  0  0  0  0  0  0  0
   -4.1916   -2.6569    1.6438 H   0  0  0  0  0  0  0  0  0  0  0  0
   -2.6283   -1.7051    1.6240 H   0  0  0  0  0  0  0  0  0  0  0  0
  2  1  1  6  0  0  0
  2 18  1  0  0  0  0
  3  2  1  0  0  0  0
  3 20  1  0  0  0  0
  4  3  1  0  0  0  0
  4  5  1  0  0  0  0
  5  6  1  0  0  0  0
  6 11  1  0  0  0  0
  7  6  2  0  0  0  0
  7  8  1  0  0  0  0
  8  9  2  0  0  0  0
  9 10  1  0  0  0  0
  9 25  1  0  0  0  0
 10 26  1  0  0  0  0
 11 27  1  0  0  0  0
 11 10  2  0  0  0  0
 12 13  1  0  0  0  0
 12  5  1  0  0  0  0
 13 28  1  0  0  0  0
 14 29  1  0  0  0  0
 14 13  2  0  0  0  0
 15 14  1  0  0  0  0
 16 15  2  0  0  0  0
 16 17  1  0  0  0  0
 17 12  2  0  0  0  0
 18 35  1  0  0  0  0
 18 34  1  0  0  0  0
 18 33  1  0  0  0  0
 19  3  1  0  0  0  0
 21  4  1  0  0  0  0
 22  4  1  0  0  0  0
 23  7  1  0  0  0  0
 24  8  1  0  0  0  0
 30 15  1  0  0  0  0
 31 16  1  0  0  0  0
 32 17  1  0  0  0  0
M  END
