1,14
q = -1.0

 41 43  0  0  1  0  0  0  0  0999 V2000
    1.7715    0.7384   -0.0662 P   0  0  0  0  0  0  0  0  0  0  0  0
    3.3544    0.3201   -0.9176 C   0  0  0  0  0  0  0  0  0  0  0  0
    4.2722    1.3222   -1.2903 C   0  0  0  0  0  0  0  0  0  0  0  0
    4.0537    2.3754   -1.0617 H   0  0  0  0  0  0  0  0  0  0  0  0
    5.4617    0.9848   -1.9514 C   0  0  0  0  0  0  0  0  0  0  0  0
    6.1724    1.7761   -2.2341 H   0  0  0  0  0  0  0  0  0  0  0  0
    5.7380   -0.3583   -2.2486 C   0  0  0  0  0  0  0  0  0  0  0  0
    6.6688   -0.6278   -2.7710 H   0  0  0  0  0  0  0  0  0  0  0  0
    4.8278   -1.3610   -1.8849 C   0  0  0  0  0  0  0  0  0  0  0  0
    5.0204   -2.4191   -2.1082 H   0  0  0  0  0  0  0  0  0  0  0  0
    3.6322   -1.0379   -1.2219 C   0  0  0  0  0  0  0  0  0  0  0  0
    2.6226   -2.1180   -0.8656 C   0  0  1  0  0  0  0  0  0  0  0  0
    2.3713   -2.0564    0.2320 H   0  0  0  0  0  0  0  0  0  0  0  0
    1.4307   -1.9534   -1.5849 O   0  0  0  0  0  1  0  0  0  0  0  0
    3.1781   -3.3738   -1.1306 O   0  0  0  0  0  0  0  0  0  0  0  0
    2.2922   -4.4397   -0.8160 C   0  0  0  0  0  0  0  0  0  0  0  0
    2.8475   -5.3810   -0.9888 H   0  0  0  0  0  0  0  0  0  0  0  0
    1.3816   -4.4122   -1.4500 H   0  0  0  0  0  0  0  0  0  0  0  0
    1.9660   -4.3945    0.2501 H   0  0  0  0  0  0  0  0  0  0  0  0
    2.1493    0.5035    1.7198 C   0  0  0  0  0  0  0  0  0  0  0  0
    3.3526   -0.0859    2.1533 C   0  0  0  0  0  0  0  0  0  0  0  0
    4.0904   -0.4342    1.4155 H   0  0  0  0  0  0  0  0  0  0  0  0
    3.6177   -0.2146    3.5263 C   0  0  0  0  0  0  0  0  0  0  0  0
    4.5594   -0.6795    3.8552 H   0  0  0  0  0  0  0  0  0  0  0  0
    2.6953    0.2565    4.4739 C   0  0  0  0  0  0  0  0  0  0  0  0
    2.9116    0.1624    5.5489 H   0  0  0  0  0  0  0  0  0  0  0  0
    1.4961    0.8485    4.0442 C   0  0  0  0  0  0  0  0  0  0  0  0
    0.7633    1.2226    4.7751 H   0  0  0  0  0  0  0  0  0  0  0  0
    1.2182    0.9629    2.6751 C   0  0  0  0  0  0  0  0  0  0  0  0
    0.2820    1.4331    2.3476 H   0  0  0  0  0  0  0  0  0  0  0  0
    1.6711    2.5697   -0.2586 C   0  0  0  0  0  0  0  0  0  0  0  0
    2.1367    3.4425    0.7461 C   0  0  0  0  0  0  0  0  0  0  0  0
    2.5594    3.0383    1.6766 H   0  0  0  0  0  0  0  0  0  0  0  0
    2.0584    4.8322    0.5652 C   0  0  0  0  0  0  0  0  0  0  0  0
    2.4221    5.5036    1.3580 H   0  0  0  0  0  0  0  0  0  0  0  0
    1.5211    5.3622   -0.6179 C   0  0  0  0  0  0  0  0  0  0  0  0
    1.4579    6.4523   -0.7567 H   0  0  0  0  0  0  0  0  0  0  0  0
    1.0712    4.4949   -1.6275 C   0  0  0  0  0  0  0  0  0  0  0  0
    0.6537    4.9020   -2.5609 H   0  0  0  0  0  0  0  0  0  0  0  0
    1.1468    3.1052   -1.4552 C   0  0  0  0  0  0  0  0  0  0  0  0
    0.7772    2.4279   -2.2391 H   0  0  0  0  0  0  0  0  0  0  0  0
  1 20  1  0  0  0  0
  2  1  1  0  0  0  0
  3  4  1  0  0  0  0
  3  2  2  0  0  0  0
  5  3  1  0  0  0  0
  6  5  1  0  0  0  0
  7  5  2  0  0  0  0
  7  9  1  0  0  0  0
  8  7  1  0  0  0  0
  9 11  2  0  0  0  0
 10  9  1  0  0  0  0
 11  2  1  0  0  0  0
 11 12  1  0  0  0  0
 12 13  1  1  0  0  0
 14 12  1  0  0  0  0
 15 12  1  0  0  0  0
 15 16  1  0  0  0  0
 16 19  1  0  0  0  0
 17 16  1  0  0  0  0
 18 16  1  0  0  0  0
 20 21  2  0  0  0  0
 20 29  1  0  0  0  0
 21 23  1  0  0  0  0
 22 21  1  0  0  0  0
 23 24  1  0  0  0  0
 23 25  2  0  0  0  0
 25 26  1  0  0  0  0
 27 25  1  0  0  0  0
 27 28  1  0  0  0  0
 29 27  2  0  0  0  0
 30 29  1  0  0  0  0
 31  1  1  0  0  0  0
 31 32  1  0  0  0  0
 32 33  1  0  0  0  0
 34 32  2  0  0  0  0
 34 35  1  0  0  0  0
 36 34  1  0  0  0  0
 37 36  1  0  0  0  0
 38 40  1  0  0  0  0
 38 36  2  0  0  0  0
 39 38  1  0  0  0  0
 40 31  2  0  0  0  0
 41 40  1  0  0  0  0
M  END
