2,3
q = -1.0, confidence = 0.002

 38 40  0  0  0  0  0  0  0  0999 V2000
    1.9647   -2.6554    0.4083 P   0  0  1  0  0  0  0  0  0  0  0  0
    0.9764    0.5525   -0.1482 P   0  0  0  0  0  0  0  0  0  0  0  0
    0.6823   -2.6874   -0.4836 O   0  0  0  0  0  1  0  0  0  0  0  0
    1.4380   -1.9306    1.8271 O   0  0  0  0  0  0  0  0  0  0  0  0
    2.0169   -2.2363    2.5525 H   0  0  0  0  0  0  0  0  0  0  0  0
    2.7563   -3.9074    0.6809 O   0  0  0  0  0  0  0  0  0  0  0  0
    3.0545   -1.3673   -0.3324 C   0  0  0  0  0  0  0  0  0  0  0  0
    4.3658   -1.7692   -0.6536 C   0  0  0  0  0  0  0  0  0  0  0  0
    4.6520   -2.8025   -0.4033 H   0  0  0  0  0  0  0  0  0  0  0  0
    5.2589   -0.8869   -1.2783 C   0  0  0  0  0  0  0  0  0  0  0  0
    6.2779   -1.2212   -1.5273 H   0  0  0  0  0  0  0  0  0  0  0  0
    4.8498    0.4187   -1.5895 C   0  0  0  0  0  0  0  0  0  0  0  0
    5.5423    1.1174   -2.0831 H   0  0  0  0  0  0  0  0  0  0  0  0
    3.5508    0.8401   -1.2690 C   0  0  0  0  0  0  0  0  0  0  0  0
    3.2356    1.8659   -1.5104 H   0  0  0  0  0  0  0  0  0  0  0  0
    2.6501   -0.0421   -0.6371 C   0  0  0  0  0  0  0  0  0  0  0  0
    1.2121    1.2354    1.5413 C   0  0  0  0  0  0  0  0  0  0  0  0
    2.4473    1.1254    2.2091 C   0  0  0  0  0  0  0  0  0  0  0  0
    3.2965    0.6317    1.7155 H   0  0  0  0  0  0  0  0  0  0  0  0
    2.5920    1.6423    3.5053 C   0  0  0  0  0  0  0  0  0  0  0  0
    3.5603    1.5518    4.0210 H   0  0  0  0  0  0  0  0  0  0  0  0
    1.5103    2.2708    4.1418 C   0  0  0  0  0  0  0  0  0  0  0  0
    1.6270    2.6747    5.1590 H   0  0  0  0  0  0  0  0  0  0  0  0
    0.2789    2.3802    3.4755 C   0  0  0  0  0  0  0  0  0  0  0  0
   -0.5750    2.8708    3.9675 H   0  0  0  0  0  0  0  0  0  0  0  0
    0.1221    1.8609    2.1818 C   0  0  0  0  0  0  0  0  0  0  0  0
   -0.8552    1.9492    1.6804 H   0  0  0  0  0  0  0  0  0  0  0  0
    0.7161    2.0255   -1.2176 C   0  0  0  0  0  0  0  0  0  0  0  0
    0.2703    1.8003   -2.5374 C   0  0  0  0  0  0  0  0  0  0  0  0
    0.0594    0.7698   -2.8669 H   0  0  0  0  0  0  0  0  0  0  0  0
    0.0847    2.8787   -3.4119 C   0  0  0  0  0  0  0  0  0  0  0  0
   -0.2626    2.6954   -4.4400 H   0  0  0  0  0  0  0  0  0  0  0  0
    0.3313    4.1911   -2.9732 C   0  0  0  0  0  0  0  0  0  0  0  0
    0.1765    5.0389   -3.6577 H   0  0  0  0  0  0  0  0  0  0  0  0
    0.7685    4.4192   -1.6597 C   0  0  0  0  0  0  0  0  0  0  0  0
    0.9596    5.4457   -1.3117 H   0  0  0  0  0  0  0  0  0  0  0  0
    0.9650    3.3407   -0.7816 C   0  0  0  0  0  0  0  0  0  0  0  0
    1.3084    3.5216    0.2476 H   0  0  0  0  0  0  0  0  0  0  0  0
  1  3  1  6  0  0  0
  1  6  2  0  0  0  0
  1  4  1  0  0  0  0
  2 17  1  0  0  0  0
  4  5  1  0  0  0  0
  7  1  1  0  0  0  0
  8  9  1  0  0  0  0
  8  7  2  0  0  0  0
 10  8  1  0  0  0  0
 11 10  1  0  0  0  0
 12 10  2  0  0  0  0
 12 14  1  0  0  0  0
 13 12  1  0  0  0  0
 14 16  2  0  0  0  0
 15 14  1  0  0  0  0
 16  7  1  0  0  0  0
 16  2  1  0  0  0  0
 17 26  2  0  0  0  0
 17 18  1  0  0  0  0
 18 20  2  0  0  0  0
 19 18  1  0  0  0  0
 20 21  1  0  0  0  0
 20 22  1  0  0  0  0
 22 23  1  0  0  0  0
 24 25  1  0  0  0  0
 24 22  2  0  0  0  0
 26 24  1  0  0  0  0
 27 26  1  0  0  0  0
 28 37  1  0  0  0  0
 28  2  1  0  0  0  0
 29 28  2  0  0  0  0
 30 29  1  0  0  0  0
 31 33  2  0  0  0  0
 31 29  1  0  0  0  0
 32 31  1  0  0  0  0
 33 35  1  0  0  0  0
 34 33  1  0  0  0  0
 35 36  1  0  0  0  0
 35 37  2  0  0  0  0
 37 38  1  0  0  0  0
M  END
