1,13
q = 0.0, confidence = 0.984

 69 71  0  0  0  0  0  0  0  0999 V2000
   -1.0747    0.0136   -0.2370 P   0  0  0  0  0  0  0  0  0  0  0  0
   -0.3098    0.5518    1.3842 C   0  0  0  0  0  0  0  0  0  0  0  0
   -1.1747    0.8741    2.4524 C   0  0  0  0  0  0  0  0  0  0  0  0
   -2.2580    0.8813    2.2686 H   0  0  0  0  0  0  0  0  0  0  0  0
   -0.6893    1.1893    3.7256 C   0  0  0  0  0  0  0  0  0  0  0  0
   -1.3950    1.4302    4.5355 H   0  0  0  0  0  0  0  0  0  0  0  0
    0.6924    1.1901    3.9632 C   0  0  0  0  0  0  0  0  0  0  0  0
    1.0922    1.4251    4.9610 H   0  0  0  0  0  0  0  0  0  0  0  0
    1.5661    0.8881    2.9126 C   0  0  0  0  0  0  0  0  0  0  0  0
    2.6458    0.8906    3.1099 H   0  0  0  0  0  0  0  0  0  0  0  0
    1.0903    0.5717    1.6188 C   0  0  0  0  0  0  0  0  0  0  0  0
    2.3422    0.2173    0.3098 P   0  0  0  0  0  4  0  0  0  0  0  0
    1.6896   -0.1332   -1.0479 O   0  0  0  0  0  1  0  0  0  0  0  0
   -1.0618    1.5203   -1.2973 C   0  0  0  0  0  0  0  0  0  0  0  0
   -1.4516    2.8071   -0.8388 C   0  0  0  0  0  0  0  0  0  0  0  0
   -1.3497    3.9220   -1.6952 C   0  0  0  0  0  0  0  0  0  0  0  0
   -1.6431    4.9215   -1.3477 H   0  0  0  0  0  0  0  0  0  0  0  0
   -0.8739    3.7547   -3.0054 C   0  0  0  0  0  0  0  0  0  0  0  0
   -0.7990    4.6340   -3.6636 H   0  0  0  0  0  0  0  0  0  0  0  0
   -0.5006    2.4879   -3.4748 C   0  0  0  0  0  0  0  0  0  0  0  0
   -0.1292    2.3575   -4.5014 H   0  0  0  0  0  0  0  0  0  0  0  0
   -0.5946    1.3817   -2.6171 C   0  0  0  0  0  0  0  0  0  0  0  0
   -0.2789    0.3792   -2.9495 H   0  0  0  0  0  0  0  0  0  0  0  0
   -1.9163    2.8789    0.4369 O   0  0  0  0  0  0  0  0  0  0  0  0
   -2.2632    4.1369    0.9816 C   0  0  0  0  0  0  0  0  0  0  0  0
   -1.4038    4.8434    0.9692 H   0  0  0  0  0  0  0  0  0  0  0  0
   -2.5573    3.9470    2.0306 H   0  0  0  0  0  0  0  0  0  0  0  0
   -3.1187    4.6000    0.4414 H   0  0  0  0  0  0  0  0  0  0  0  0
   -2.8445   -0.2393    0.1758 C   0  0  0  0  0  0  0  0  0  0  0  0
   -3.1697   -1.3161    1.0460 C   0  0  0  0  0  0  0  0  0  0  0  0
   -4.5131   -1.6778    1.2589 C   0  0  0  0  0  0  0  0  0  0  0  0
   -4.7667   -2.5118    1.9268 H   0  0  0  0  0  0  0  0  0  0  0  0
   -5.5334   -0.9674    0.6063 C   0  0  0  0  0  0  0  0  0  0  0  0
   -6.5818   -1.2567    0.7760 H   0  0  0  0  0  0  0  0  0  0  0  0
   -5.2266    0.0931   -0.2577 C   0  0  0  0  0  0  0  0  0  0  0  0
   -6.0285    0.6407   -0.7739 H   0  0  0  0  0  0  0  0  0  0  0  0
   -3.8848    0.4471   -0.4718 C   0  0  0  0  0  0  0  0  0  0  0  0
   -3.6357    1.2605   -1.1690 H   0  0  0  0  0  0  0  0  0  0  0  0
   -2.1089   -1.9233    1.6347 O   0  0  0  0  0  0  0  0  0  0  0  0
   -2.3006   -3.1287    2.3518 C   0  0  0  0  0  0  0  0  0  0  0  0
   -2.9028   -2.9687    3.2737 H   0  0  0  0  0  0  0  0  0  0  0  0
   -1.2911   -3.4813    2.6318 H   0  0  0  0  0  0  0  0  0  0  0  0
   -2.7925   -3.9003    1.7203 H   0  0  0  0  0  0  0  0  0  0  0  0
    3.2649    1.8456    0.0160 C   0  0  0  0  0  0  0  0  0  0  0  0
    2.1965    2.7952   -0.5633 C   0  0  0  0  0  0  0  0  0  0  0  0
    1.3814    2.9860    0.1636 H   0  0  0  0  0  0  0  0  0  0  0  0
    1.7440    2.3868   -1.4855 H   0  0  0  0  0  0  0  0  0  0  0  0
    2.6737    3.7686   -0.8027 H   0  0  0  0  0  0  0  0  0  0  0  0
    4.3417    1.5709   -1.0507 C   0  0  0  0  0  0  0  0  0  0  0  0
    4.7425    2.5394   -1.4170 H   0  0  0  0  0  0  0  0  0  0  0  0
    3.9189    1.0221   -1.9144 H   0  0  0  0  0  0  0  0  0  0  0  0
    5.1932    0.9903   -0.6441 H   0  0  0  0  0  0  0  0  0  0  0  0
    3.8898    2.4937    1.2602 C   0  0  0  0  0  0  0  0  0  0  0  0
    4.4291    3.4111    0.9419 H   0  0  0  0  0  0  0  0  0  0  0  0
    4.6241    1.8420    1.7698 H   0  0  0  0  0  0  0  0  0  0  0  0
    3.1221    2.8061    1.9937 H   0  0  0  0  0  0  0  0  0  0  0  0
    3.3963   -1.2416    0.9093 C   0  0  0  0  0  0  0  0  0  0  0  0
    2.4111   -2.2580    1.5238 C   0  0  0  0  0  0  0  0  0  0  0  0
    1.5810   -2.4919    0.8220 H   0  0  0  0  0  0  0  0  0  0  0  0
    1.9807   -1.9002    2.4798 H   0  0  0  0  0  0  0  0  0  0  0  0
    2.9562   -3.2049    1.7192 H   0  0  0  0  0  0  0  0  0  0  0  0
    4.4899   -0.8744    1.9248 C   0  0  0  0  0  0  0  0  0  0  0  0
    5.0188   -1.8062    2.2164 H   0  0  0  0  0  0  0  0  0  0  0  0
    4.0942   -0.4267    2.8572 H   0  0  0  0  0  0  0  0  0  0  0  0
    5.2493   -0.1915    1.4960 H   0  0  0  0  0  0  0  0  0  0  0  0
    4.0429   -1.8621   -0.3464 C   0  0  0  0  0  0  0  0  0  0  0  0
    4.6244   -2.7521   -0.0250 H   0  0  0  0  0  0  0  0  0  0  0  0
    4.7450   -1.1676   -0.8456 H   0  0  0  0  0  0  0  0  0  0  0  0
    3.2826   -2.2001   -1.0801 H   0  0  0  0  0  0  0  0  0  0  0  0
  1 29  1  0  0  0  0
  1  2  1  0  0  0  0
  2 11  2  0  0  0  0
  2  3  1  0  0  0  0
  3  5  2  0  0  0  0
  4  3  1  0  0  0  0
  5  7  1  0  0  0  0
  5  6  1  0  0  0  0
  7  8  1  0  0  0  0
  9 10  1  0  0  0  0
  9  7  2  0  0  0  0
 11  9  1  0  0  0  0
 12 57  1  0  0  0  0
 12 11  1  0  0  0  0
 13 12  1  0  0  0  0
 14 15  1  0  0  0  0
 14  1  1  0  0  0  0
 15 24  1  0  0  0  0
 16 17  1  0  0  0  0
 16 15  2  0  0  0  0
 18 16  1  0  0  0  0
 19 18  1  0  0  0  0
 20 18  2  0  0  0  0
 20 22  1  0  0  0  0
 21 20  1  0  0  0  0
 22 14  2  0  0  0  0
 23 22  1  0  0  0  0
 24 25  1  0  0  0  0
 25 27  1  0  0  0  0
 26 25  1  0  0  0  0
 28 25  1  0  0  0  0
 29 30  1  0  0  0  0
 30 31  2  0  0  0  0
 30 39  1  0  0  0  0
 31 32  1  0  0  0  0
 33 34  1  0  0  0  0
 33 31  1  0  0  0  0
 35 33  2  0  0  0  0
 36 35  1  0  0  0  0
 37 35  1  0  0  0  0
 37 29  2  0  0  0  0
 38 37  1  0  0  0  0
 39 40  1  0  0  0  0
 40 42  1  0  0  0  0
 40 41  1  0  0  0  0
 43 40  1  0  0  0  0
 44 12  1  0  0  0  0
 44 53  1  0  0  0  0
 45 44  1  0  0  0  0
 45 46  1  0  0  0  0
 47 45  1  0  0  0  0
 48 45  1  0  0  0  0
 49 52  1  0  0  0  0
 49 44  1  0  0  0  0
 50 49  1  0  0  0  0
 51 49  1  0  0  0  0
 53 55  1  0  0  0  0
 53 56  1  0  0  0  0
 54 53  1  0  0  0  0
 57 58  1  0  0  0  0
 57 62  1  0  0  0  0
 58 61  1  0  0  0  0
 58 60  1  0  0  0  0
 59 58  1  0  0  0  0
 62 63  1  0  0  0  0
 62 64  1  0  0  0  0
 65 62  1  0  0  0  0
 66 67  1  0  0  0  0
 66 57  1  0  0  0  0
 68 66  1  0  0  0  0
 69 66  1  0  0  0  0
M  END
