1,2
q = -1.0, confidence = 0.0

 45 46  0  0  0  0  0  0  0  0999 V2000
    1.4416    0.3268   -0.1001 P   0  0  1  0  0  0  0  0  0  0  0  0
   -0.2662   -0.8718    1.8486 O   0  5  0  0  0  0  0  0  0  0  0  0
    0.8045   -0.3403    2.4404 C   0  0  0  0  0  0  0  0  0  0  0  0
    0.9776   -0.4935    3.8408 C   0  0  0  0  0  0  0  0  0  0  0  0
    2.0851    0.0662    4.4806 C   0  0  0  0  0  0  0  0  0  0  0  0
    3.0594    0.7783    3.7520 C   0  0  0  0  0  0  0  0  0  0  0  0
    2.9161    0.9150    2.3658 C   0  0  0  0  0  0  0  0  0  0  0  0
    1.7987    0.3707    1.6978 C   0  0  0  0  0  0  0  0  0  0  0  0
    1.5899    2.0401   -0.7869 C   0  0  0  0  0  0  0  0  0  0  0  0
    2.2495    3.0928   -0.1223 C   0  0  0  0  0  0  0  0  0  0  0  0
    2.2918    4.3765   -0.6894 C   0  0  0  0  0  0  0  0  0  0  0  0
    1.6723    4.6270   -1.9230 C   0  0  0  0  0  0  0  0  0  0  0  0
    0.9874    3.5910   -2.5779 C   0  0  0  0  0  0  0  0  0  0  0  0
    0.9352    2.3093   -2.0113 C   0  0  0  0  0  0  0  0  0  0  0  0
    2.8418   -0.6457   -1.0307 C   0  0  0  0  0  0  0  0  0  0  0  0
    2.2767   -0.8639   -2.4494 C   0  0  0  0  0  0  0  0  0  0  0  0
    4.0622    0.2882   -1.1299 C   0  0  0  0  0  0  0  0  0  0  0  0
    3.2275   -2.0390   -0.3549 C   0  0  0  0  0  0  0  0  0  0  0  0
    4.1437   -1.8763    0.8755 C   0  0  0  0  0  0  0  0  0  0  0  0
    4.0049   -2.9005   -1.3806 C   0  0  0  0  0  0  0  0  0  0  0  0
    1.9864   -2.8454    0.0690 C   0  0  0  0  0  0  0  0  0  0  0  0
    0.2113   -1.0518    4.3982 H   0  0  0  0  0  0  0  0  0  0  0  0
    2.1960   -0.0520    5.5698 H   0  0  0  0  0  0  0  0  0  0  0  0
    3.9311    1.2129    4.2623 H   0  0  0  0  0  0  0  0  0  0  0  0
    3.7071    1.4247    1.7963 H   0  0  0  0  0  0  0  0  0  0  0  0
    2.7176    2.9221    0.8556 H   0  0  0  0  0  0  0  0  0  0  0  0
    2.8100    5.1880   -0.1558 H   0  0  0  0  0  0  0  0  0  0  0  0
    1.7079    5.6341   -2.3657 H   0  0  0  0  0  0  0  0  0  0  0  0
    0.4716    3.7833   -3.5310 H   0  0  0  0  0  0  0  0  0  0  0  0
    0.3420    1.5211   -2.4993 H   0  0  0  0  0  0  0  0  0  0  0  0
    3.0901   -1.1626   -3.1395 H   0  0  0  0  0  0  0  0  0  0  0  0
    1.8408    0.0646   -2.8632 H   0  0  0  0  0  0  0  0  0  0  0  0
    1.5021   -1.6520   -2.4711 H   0  0  0  0  0  0  0  0  0  0  0  0
    4.9095   -0.2533   -1.5987 H   0  0  0  0  0  0  0  0  0  0  0  0
    4.4091    0.6558   -0.1456 H   0  0  0  0  0  0  0  0  0  0  0  0
    3.8417    1.1689   -1.7624 H   0  0  0  0  0  0  0  0  0  0  0  0
    4.3846   -2.8809    1.2783 H   0  0  0  0  0  0  0  0  0  0  0  0
    3.6645   -1.3030    1.6873 H   0  0  0  0  0  0  0  0  0  0  0  0
    5.1063   -1.3888    0.6242 H   0  0  0  0  0  0  0  0  0  0  0  0
    4.3763   -3.8142   -0.8744 H   0  0  0  0  0  0  0  0  0  0  0  0
    4.8891   -2.3737   -1.7939 H   0  0  0  0  0  0  0  0  0  0  0  0
    3.3703   -3.2296   -2.2252 H   0  0  0  0  0  0  0  0  0  0  0  0
    2.3069   -3.8283    0.4711 H   0  0  0  0  0  0  0  0  0  0  0  0
    1.3018   -3.0377   -0.7774 H   0  0  0  0  0  0  0  0  0  0  0  0
    1.4041   -2.3451    0.8667 H   0  0  0  0  0  0  0  0  0  0  0  0
  1 15  1  6  0  0  0
  1  8  1  0  0  0  0
  2  3  1  0  0  0  0
  3  4  1  0  0  0  0
  4 22  1  0  0  0  0
  4  5  2  0  0  0  0
  5 23  1  0  0  0  0
  6 24  1  0  0  0  0
  6  5  1  0  0  0  0
  7  6  2  0  0  0  0
  8  7  1  0  0  0  0
  8  3  2  0  0  0  0
  9 10  1  0  0  0  0
  9  1  1  0  0  0  0
 10 26  1  0  0  0  0
 11 27  1  0  0  0  0
 11 10  2  0  0  0  0
 12 11  1  0  0  0  0
 13 14  1  0  0  0  0
 13 12  2  0  0  0  0
 14  9  2  0  0  0  0
 15 18  1  0  0  0  0
 16 15  1  0  0  0  0
 17 15  1  0  0  0  0
 17 35  1  0  0  0  0
 18 21  1  0  0  0  0
 18 19  1  0  0  0  0
 19 37  1  0  0  0  0
 19 38  1  0  0  0  0
 20 40  1  0  0  0  0
 20 18  1  0  0  0  0
 21 43  1  0  0  0  0
 21 45  1  0  0  0  0
 25  7  1  0  0  0  0
 28 12  1  0  0  0  0
 29 13  1  0  0  0  0
 30 14  1  0  0  0  0
 31 16  1  0  0  0  0
 32 16  1  0  0  0  0
 33 16  1  0  0  0  0
 34 17  1  0  0  0  0
 36 17  1  0  0  0  0
 39 19  1  0  0  0  0
 41 20  1  0  0  0  0
 42 20  1  0  0  0  0
 44 21  1  0  0  0  0
M  CHG  1   2  -1
M  END
