1,2
q = -1.0

 39 41  0  0  0  0  0  0  0  0999 V2000
   -1.7036    0.1484   -0.3200 P   0  0  2  0  0  0  0  0  0  0  0  0
   -1.4837   -2.7258   -0.2221 O   0  5  0  0  0  0  0  0  0  0  0  0
   -3.1290   -0.9611   -0.2080 C   0  0  0  0  0  0  0  0  0  0  0  0
   -2.7294   -2.3299   -0.2451 C   0  0  0  0  0  0  0  0  0  0  0  0
   -3.7654   -3.3343   -0.3055 C   0  0  0  0  0  0  0  0  0  0  0  0
   -3.4430   -4.3841   -0.3630 H   0  0  0  0  0  0  0  0  0  0  0  0
   -5.0941   -2.9824   -0.2686 C   0  0  0  0  0  0  0  0  0  0  0  0
   -5.8698   -3.7643   -0.3056 H   0  0  0  0  0  0  0  0  0  0  0  0
   -5.5165   -1.6169   -0.1642 C   0  0  0  0  0  0  0  0  0  0  0  0
   -6.8925   -1.2719   -0.0901 C   0  0  0  0  0  0  0  0  0  0  0  0
   -7.6365   -2.0837   -0.1262 H   0  0  0  0  0  0  0  0  0  0  0  0
   -7.3006    0.0515    0.0303 C   0  0  0  0  0  0  0  0  0  0  0  0
   -8.3700    0.3033    0.0886 H   0  0  0  0  0  0  0  0  0  0  0  0
   -6.3225    1.0731    0.0872 C   0  0  0  0  0  0  0  0  0  0  0  0
   -6.6336    2.1234    0.1988 H   0  0  0  0  0  0  0  0  0  0  0  0
   -4.9676    0.7677    0.0105 C   0  0  0  0  0  0  0  0  0  0  0  0
   -4.2321    1.5798    0.0767 H   0  0  0  0  0  0  0  0  0  0  0  0
   -4.5136   -0.5771   -0.1286 C   0  0  0  0  0  0  0  0  0  0  0  0
   -1.8424    1.4681    0.9398 C   0  0  0  0  0  0  0  0  0  0  0  0
   -1.5340    2.8192    0.6799 C   0  0  0  0  0  0  0  0  0  0  0  0
   -1.2748    3.1445   -0.3368 H   0  0  0  0  0  0  0  0  0  0  0  0
   -1.5470    3.7585    1.7243 C   0  0  0  0  0  0  0  0  0  0  0  0
   -1.3060    4.8115    1.5122 H   0  0  0  0  0  0  0  0  0  0  0  0
   -1.8671    3.3590    3.0307 C   0  0  0  0  0  0  0  0  0  0  0  0
   -1.8750    4.0967    3.8471 H   0  0  0  0  0  0  0  0  0  0  0  0
   -2.1867    2.0147    3.2918 C   0  0  0  0  0  0  0  0  0  0  0  0
   -2.4471    1.6973    4.3128 H   0  0  0  0  0  0  0  0  0  0  0  0
   -2.1758    1.0742    2.2547 C   0  0  0  0  0  0  0  0  0  0  0  0
   -2.4274    0.0204    2.4536 H   0  0  0  0  0  0  0  0  0  0  0  0
   -1.6116    0.9537   -2.0065 C   0  0  0  0  0  0  0  0  0  0  0  0
   -0.7296    1.6275   -1.9269 H   0  0  0  0  0  0  0  0  0  0  0  0
   -1.2916   -0.1429   -3.0315 C   0  0  0  0  0  0  0  0  0  0  0  0
   -0.3592   -0.6838   -2.7734 H   0  0  0  0  0  0  0  0  0  0  0  0
   -1.1692    0.3072   -4.0378 H   0  0  0  0  0  0  0  0  0  0  0  0
   -2.1112   -0.8886   -3.0839 H   0  0  0  0  0  0  0  0  0  0  0  0
   -2.8506    1.7593   -2.4078 C   0  0  0  0  0  0  0  0  0  0  0  0
   -3.0905    2.5693   -1.6923 H   0  0  0  0  0  0  0  0  0  0  0  0
   -3.7416    1.1062   -2.4899 H   0  0  0  0  0  0  0  0  0  0  0  0
   -2.6790    2.2271   -3.3996 H   0  0  0  0  0  0  0  0  0  0  0  0
  1 30  1  6  0  0  0
  1  3  1  0  0  0  0
  1 19  1  0  0  0  0
  3 18  1  0  0  0  0
  4  2  1  0  0  0  0
  4  3  2  0  0  0  0
  5  7  2  0  0  0  0
  5  4  1  0  0  0  0
  6  5  1  0  0  0  0
  7  9  1  0  0  0  0
  8  7  1  0  0  0  0
  9 18  2  0  0  0  0
  9 10  1  0  0  0  0
 10 12  2  0  0  0  0
 11 10  1  0  0  0  0
 12 14  1  0  0  0  0
 12 13  1  0  0  0  0
 14 15  1  0  0  0  0
 16 17  1  0  0  0  0
 16 14  2  0  0  0  0
 18 16  1  0  0  0  0
 19 28  1  0  0  0  0
 20 19  2  0  0  0  0
 20 22  1  0  0  0  0
 21 20  1  0  0  0  0
 22 24  2  0  0  0  0
 23 22  1  0  0  0  0
 24 26  1  0  0  0  0
 24 25  1  0  0  0  0
 26 27  1  0  0  0  0
 28 29  1  0  0  0  0
 28 26  2  0  0  0  0
 30 31  1  0  0  0  0
 32 33  1  0  0  0  0
 32 30  1  0  0  0  0
 34 32  1  0  0  0  0
 35 32  1  0  0  0  0
 36 30  1  0  0  0  0
 36 37  1  0  0  0  0
 38 36  1  0  0  0  0
 39 36  1  0  0  0  0
M  CHG  1   2  -1
M  END
