1,13
q = -1.0

 36 37  0  0  0  0  0  0  0  0999 V2000
   -1.1402   -0.0482    0.4126 P   0  0  1  0  0  0  0  0  0  0  0  0
   -1.7297   -1.8019   -1.6478 C   0  0  0  0  0  0  0  0  0  0  0  0
   -0.6541   -1.6812   -1.8550 H   0  0  0  0  0  0  0  0  0  0  0  0
   -2.2826   -1.1420   -0.5283 C   0  0  0  0  0  0  0  0  0  0  0  0
   -2.5317   -2.5987   -2.4760 C   0  0  0  0  0  0  0  0  0  0  0  0
   -2.0840   -3.1042   -3.3451 H   0  0  0  0  0  0  0  0  0  0  0  0
   -4.4565   -2.1102   -1.0811 C   0  0  0  0  0  0  0  0  0  0  0  0
   -5.5266   -2.2283   -0.8523 H   0  0  0  0  0  0  0  0  0  0  0  0
   -3.6569   -1.3048   -0.2548 C   0  0  0  0  0  0  0  0  0  0  0  0
   -4.1182   -0.8026    0.6055 H   0  0  0  0  0  0  0  0  0  0  0  0
   -3.8979   -2.7577   -2.1932 C   0  0  0  0  0  0  0  0  0  0  0  0
   -4.5275   -3.3884   -2.8391 H   0  0  0  0  0  0  0  0  0  0  0  0
    1.0732    1.7272   -0.2853 O   0  5  0  0  0  0  0  0  0  0  0  0
   -0.0848    2.3053   -0.4904 C   0  0  0  0  0  0  0  0  0  0  0  0
   -1.3328    1.6240   -0.2756 C   0  0  0  0  0  0  0  0  0  0  0  0
   -2.5676    2.2341   -0.5754 C   0  0  0  0  0  0  0  0  0  0  0  0
   -3.5012    1.6630   -0.4474 H   0  0  0  0  0  0  0  0  0  0  0  0
   -0.1669    3.6569   -0.9506 C   0  0  0  0  0  0  0  0  0  0  0  0
    0.7761    4.2031   -1.1043 H   0  0  0  0  0  0  0  0  0  0  0  0
   -1.6493    0.0214    2.2483 C   0  0  0  0  0  0  0  0  0  0  0  0
   -0.4860    0.7514    2.9480 C   0  0  0  0  0  0  0  0  0  0  0  0
   -0.7131    0.8493    4.0309 H   0  0  0  0  0  0  0  0  0  0  0  0
   -0.3378    1.7691    2.5339 H   0  0  0  0  0  0  0  0  0  0  0  0
    0.4669    0.1963    2.8326 H   0  0  0  0  0  0  0  0  0  0  0  0
   -1.7709   -1.4152    2.7788 C   0  0  0  0  0  0  0  0  0  0  0  0
   -1.9738   -1.3902    3.8707 H   0  0  0  0  0  0  0  0  0  0  0  0
   -0.8333   -1.9831    2.6201 H   0  0  0  0  0  0  0  0  0  0  0  0
   -2.5964   -1.9728    2.2936 H   0  0  0  0  0  0  0  0  0  0  0  0
   -2.9393    0.8205    2.4923 C   0  0  0  0  0  0  0  0  0  0  0  0
   -3.1037    0.9079    3.5875 H   0  0  0  0  0  0  0  0  0  0  0  0
   -3.8408    0.3371    2.0700 H   0  0  0  0  0  0  0  0  0  0  0  0
   -2.8688    1.8445    2.0774 H   0  0  0  0  0  0  0  0  0  0  0  0
   -1.3985    4.2521   -1.2230 C   0  0  0  0  0  0  0  0  0  0  0  0
   -1.4217    5.2898   -1.5930 H   0  0  0  0  0  0  0  0  0  0  0  0
   -2.6117    3.5492   -1.0511 C   0  0  0  0  0  0  0  0  0  0  0  0
   -3.5739    4.0234   -1.2926 H   0  0  0  0  0  0  0  0  0  0  0  0
  1 20  1  1  0  0  0
  2  4  1  0  0  0  0
  3  2  1  0  0  0  0
  4  9  2  0  0  0  0
  4  1  1  0  0  0  0
  5 11  1  0  0  0  0
  5  2  2  0  0  0  0
  6  5  1  0  0  0  0
  7  8  1  0  0  0  0
  7  9  1  0  0  0  0
  9 10  1  0  0  0  0
 11  7  2  0  0  0  0
 12 11  1  0  0  0  0
 14 13  1  0  0  0  0
 14 15  1  0  0  0  0
 15  1  1  0  0  0  0
 16 17  1  0  0  0  0
 16 15  2  0  0  0  0
 18 14  2  0  0  0  0
 19 18  1  0  0  0  0
 20 29  1  0  0  0  0
 20 25  1  0  0  0  0
 20 21  1  0  0  0  0
 21 22  1  0  0  0  0
 23 21  1  0  0  0  0
 24 21  1  0  0  0  0
 25 26  1  0  0  0  0
 27 25  1  0  0  0  0
 28 25  1  0  0  0  0
 29 30  1  0  0  0  0
 31 29  1  0  0  0  0
 32 29  1  0  0  0  0
 33 35  2  0  0  0  0
 33 18  1  0  0  0  0
 34 33  1  0  0  0  0
 35 16  1  0  0  0  0
 36 35  1  0  0  0  0
M  CHG  1  13  -1
M  END
