1,3
q = -1.0

 35 35  0  0  0  0  0  0  0  0999 V2000
   -1.4242   -1.0072    0.0936 P   0  0  0  0  0  0  0  0  0  0  0  0
   -0.3002    2.2643    0.0496 S   0  0  0  0  0  0  0  0  0  0  0  0
    0.4853    1.3193   -0.9001 O   0  0  0  0  0  1  0  0  0  0  0  0
   -0.0553    1.9473    1.4928 O   0  0  0  0  0  1  0  0  0  0  0  0
   -2.0373    1.8019   -0.2461 C   0  0  0  0  0  0  0  0  0  0  0  0
   -0.1612    3.6754   -0.3702 O   0  0  0  0  0  1  0  0  0  0  0  0
   -2.5106    0.4679   -0.2133 C   0  0  0  0  0  0  0  0  0  0  0  0
   -3.4781   -2.2155    1.7507 C   0  0  0  0  0  0  0  0  0  0  0  0
   -3.6634   -2.7500    2.7057 H   0  0  0  0  0  0  0  0  0  0  0  0
   -3.7216   -2.9180    0.9282 H   0  0  0  0  0  0  0  0  0  0  0  0
   -4.1901   -1.3676    1.7099 H   0  0  0  0  0  0  0  0  0  0  0  0
   -2.9092    2.8706   -0.5092 C   0  0  0  0  0  0  0  0  0  0  0  0
   -2.4803    3.8827   -0.5407 H   0  0  0  0  0  0  0  0  0  0  0  0
   -4.2709    2.6363   -0.7374 C   0  0  0  0  0  0  0  0  0  0  0  0
   -4.9473    3.4803   -0.9409 H   0  0  0  0  0  0  0  0  0  0  0  0
   -3.8853    0.2560   -0.4674 C   0  0  0  0  0  0  0  0  0  0  0  0
   -4.2890   -0.7657   -0.4813 H   0  0  0  0  0  0  0  0  0  0  0  0
   -1.9680   -2.1551   -1.2888 C   0  0  0  0  0  0  0  0  0  0  0  0
   -3.0742   -2.2316   -1.2158 H   0  0  0  0  0  0  0  0  0  0  0  0
   -1.3715   -3.5578   -1.1493 C   0  0  0  0  0  0  0  0  0  0  0  0
   -1.7681   -4.2137   -1.9517 H   0  0  0  0  0  0  0  0  0  0  0  0
   -1.6131   -4.0343   -0.1783 H   0  0  0  0  0  0  0  0  0  0  0  0
   -0.2687   -3.5274   -1.2517 H   0  0  0  0  0  0  0  0  0  0  0  0
   -2.0272   -1.7311    1.7125 C   0  0  0  0  0  0  0  0  0  0  0  0
   -1.3541   -2.6084    1.8296 H   0  0  0  0  0  0  0  0  0  0  0  0
   -4.7602    1.3227   -0.7182 C   0  0  0  0  0  0  0  0  0  0  0  0
   -5.8254    1.1203   -0.9057 H   0  0  0  0  0  0  0  0  0  0  0  0
   -1.7178   -0.7307    2.8337 C   0  0  0  0  0  0  0  0  0  0  0  0
   -2.3365    0.1842    2.7347 H   0  0  0  0  0  0  0  0  0  0  0  0
   -0.6595   -0.4069    2.8109 H   0  0  0  0  0  0  0  0  0  0  0  0
   -1.9344   -1.1880    3.8211 H   0  0  0  0  0  0  0  0  0  0  0  0
   -1.5985   -1.5130   -2.6319 C   0  0  0  0  0  0  0  0  0  0  0  0
   -0.5001   -1.3786   -2.7075 H   0  0  0  0  0  0  0  0  0  0  0  0
   -2.0660   -0.5174   -2.7610 H   0  0  0  0  0  0  0  0  0  0  0  0
   -1.9283   -2.1618   -3.4694 H   0  0  0  0  0  0  0  0  0  0  0  0
  1 24  1  0  0  0  0
  2  4  1  0  0  0  0
  3  2  1  0  0  0  0
  5  7  1  0  0  0  0
  5  2  1  0  0  0  0
  6  2  1  0  0  0  0
  7  1  1  0  0  0  0
  8  9  1  0  0  0  0
 10  8  1  0  0  0  0
 11  8  1  0  0  0  0
 12  5  2  0  0  0  0
 13 12  1  0  0  0  0
 14 26  2  0  0  0  0
 14 12  1  0  0  0  0
 15 14  1  0  0  0  0
 16  7  2  0  0  0  0
 17 16  1  0  0  0  0
 18 19  1  0  0  0  0
 18 20  1  0  0  0  0
 18  1  1  0  0  0  0
 20 22  1  0  0  0  0
 21 20  1  0  0  0  0
 23 20  1  0  0  0  0
 24  8  1  0  0  0  0
 24 25  1  0  0  0  0
 24 28  1  0  0  0  0
 26 16  1  0  0  0  0
 27 26  1  0  0  0  0
 28 31  1  0  0  0  0
 29 28  1  0  0  0  0
 30 28  1  0  0  0  0
 32 18  1  0  0  0  0
 33 32  1  0  0  0  0
 34 32  1  0  0  0  0
 35 32  1  0  0  0  0
M  END
