1,2
q = -1.0

 54 56  0  0  0  0  0  0  0  0999 V2000
   -0.3711   -0.5982    0.0950 P   0  0  0  0  0  0  0  0  0  0  0  0
   -0.2832    2.2962    0.0002 O   0  5  0  0  0  0  0  0  0  0  0  0
    2.9556   -0.8603   -2.3198 O   0  0  0  0  0  0  0  0  0  0  0  0
    2.6816   -2.5110   -0.7849 O   0  0  0  0  0  0  0  0  0  0  0  0
    5.2231   -1.2284   -0.0993 O   0  0  0  0  0  0  0  0  0  0  0  0
    5.5776    0.0177    1.7686 O   0  0  0  0  0  0  0  0  0  0  0  0
    0.9022    1.7752   -0.1078 C   0  0  0  0  0  0  0  0  0  0  0  0
    2.0028    2.7644   -0.3310 C   0  0  0  0  0  0  0  0  0  0  0  0
    1.9849    3.9803    0.3836 C   0  0  0  0  0  0  0  0  0  0  0  0
    2.9827    4.9422    0.1749 C   0  0  0  0  0  0  0  0  0  0  0  0
    3.9967    4.7100   -0.7685 C   0  0  0  0  0  0  0  0  0  0  0  0
    4.0045    3.5124   -1.5031 C   0  0  0  0  0  0  0  0  0  0  0  0
    3.0174    2.5411   -1.2874 C   0  0  0  0  0  0  0  0  0  0  0  0
    1.1408    0.3861   -0.0867 C   0  0  0  0  0  0  0  0  0  0  0  0
    2.4612   -0.2444   -0.0557 C   0  0  0  0  0  0  0  0  0  0  0  0
    3.4439    0.1070    0.8253 C   0  0  0  0  0  0  0  0  0  0  0  0
    4.8027   -0.4483    0.7476 C   0  0  0  0  0  0  0  0  0  0  0  0
    6.9206   -0.4665    1.7751 C   0  0  0  0  0  0  0  0  0  0  0  0
    2.7584   -1.2213   -1.1734 C   0  0  0  0  0  0  0  0  0  0  0  0
    2.9528   -3.4781   -1.8091 C   0  0  0  0  0  0  0  0  0  0  0  0
   -0.4334   -1.8549   -1.2399 C   0  0  0  0  0  0  0  0  0  0  0  0
   -0.2157   -1.4138   -2.5618 C   0  0  0  0  0  0  0  0  0  0  0  0
   -0.3275   -2.3135   -3.6299 C   0  0  0  0  0  0  0  0  0  0  0  0
   -0.6634   -3.6570   -3.3897 C   0  0  0  0  0  0  0  0  0  0  0  0
   -0.8818   -4.0985   -2.0755 C   0  0  0  0  0  0  0  0  0  0  0  0
   -0.7689   -3.2021   -1.0012 C   0  0  0  0  0  0  0  0  0  0  0  0
   -0.2383   -1.5298    1.6736 C   0  0  0  0  0  0  0  0  0  0  0  0
    0.7954   -2.4684    1.8891 C   0  0  0  0  0  0  0  0  0  0  0  0
    0.9111   -3.1041    3.1341 C   0  0  0  0  0  0  0  0  0  0  0  0
    0.0066   -2.8128    4.1685 C   0  0  0  0  0  0  0  0  0  0  0  0
   -1.0183   -1.8771    3.9585 C   0  0  0  0  0  0  0  0  0  0  0  0
   -1.1407   -1.2357    2.7169 C   0  0  0  0  0  0  0  0  0  0  0  0
    1.1778    4.1549    1.1103 H   0  0  0  0  0  0  0  0  0  0  0  0
    2.9681    5.8811    0.7497 H   0  0  0  0  0  0  0  0  0  0  0  0
    4.7782    5.4669   -0.9371 H   0  0  0  0  0  0  0  0  0  0  0  0
    4.7868    3.3321   -2.2562 H   0  0  0  0  0  0  0  0  0  0  0  0
    3.0244    1.6060   -1.8687 H   0  0  0  0  0  0  0  0  0  0  0  0
    3.2392    0.8527    1.6061 H   0  0  0  0  0  0  0  0  0  0  0  0
    7.4438   -0.2023    0.8331 H   0  0  0  0  0  0  0  0  0  0  0  0
    7.4176    0.0114    2.6385 H   0  0  0  0  0  0  0  0  0  0  0  0
    6.9466   -1.5710    1.8786 H   0  0  0  0  0  0  0  0  0  0  0  0
    2.3044   -3.3040   -2.6899 H   0  0  0  0  0  0  0  0  0  0  0  0
    2.7405   -4.4645   -1.3608 H   0  0  0  0  0  0  0  0  0  0  0  0
    4.0159   -3.4084   -2.1142 H   0  0  0  0  0  0  0  0  0  0  0  0
    0.0624   -0.3646   -2.7454 H   0  0  0  0  0  0  0  0  0  0  0  0
   -0.1461   -1.9633   -4.6572 H   0  0  0  0  0  0  0  0  0  0  0  0
   -0.7521   -4.3620   -4.2303 H   0  0  0  0  0  0  0  0  0  0  0  0
   -1.1426   -5.1501   -1.8817 H   0  0  0  0  0  0  0  0  0  0  0  0
   -0.9324   -3.5546    0.0279 H   0  0  0  0  0  0  0  0  0  0  0  0
    1.5133   -2.6957    1.0871 H   0  0  0  0  0  0  0  0  0  0  0  0
    1.7208   -3.8318    3.2975 H   0  0  0  0  0  0  0  0  0  0  0  0
    0.1032   -3.3156    5.1430 H   0  0  0  0  0  0  0  0  0  0  0  0
   -1.7297   -1.6442    4.7654 H   0  0  0  0  0  0  0  0  0  0  0  0
   -1.9410   -0.4996    2.5404 H   0  0  0  0  0  0  0  0  0  0  0  0
  1 27  1  0  0  0  0
  3 19  2  0  0  0  0
  5 17  2  0  0  0  0
  6 18  1  0  0  0  0
  7 14  2  0  0  0  0
  7  2  1  0  0  0  0
  8  7  1  0  0  0  0
  8  9  1  0  0  0  0
  9 33  1  0  0  0  0
 10  9  2  0  0  0  0
 10 34  1  0  0  0  0
 11 10  1  0  0  0  0
 12 13  1  0  0  0  0
 12 11  2  0  0  0  0
 13  8  2  0  0  0  0
 14 15  1  0  0  0  0
 14  1  1  0  0  0  0
 15 16  2  0  0  0  0
 16 38  1  0  0  0  0
 17 16  1  0  0  0  0
 17  6  1  0  0  0  0
 18 41  1  0  0  0  0
 18 40  1  0  0  0  0
 19  4  1  0  0  0  0
 19 15  1  0  0  0  0
 20 43  1  0  0  0  0
 20  4  1  0  0  0  0
 21 26  1  0  0  0  0
 21  1  1  0  0  0  0
 22 21  2  0  0  0  0
 23 24  2  0  0  0  0
 23 22  1  0  0  0  0
 24 25  1  0  0  0  0
 25 48  1  0  0  0  0
 25 26  2  0  0  0  0
 26 49  1  0  0  0  0
 27 28  2  0  0  0  0
 27 32  1  0  0  0  0
 28 29  1  0  0  0  0
 29 51  1  0  0  0  0
 29 30  2  0  0  0  0
 30 52  1  0  0  0  0
 31 30  1  0  0  0  0
 31 53  1  0  0  0  0
 32 31  2  0  0  0  0
 35 11  1  0  0  0  0
 36 12  1  0  0  0  0
 37 13  1  0  0  0  0
 39 18  1  0  0  0  0
 42 20  1  0  0  0  0
 44 20  1  0  0  0  0
 45 22  1  0  0  0  0
 46 23  1  0  0  0  0
 47 24  1  0  0  0  0
 50 28  1  0  0  0  0
 54 32  1  0  0  0  0
M  CHG  1   2  -1
M  END
