1,2
q = -1.0, confidence = 0.0

 41 43  0  0  0  0  0  0  0  0999 V2000
    1.9237   -0.1873    0.4017 P   0  0  2  0  0  0  0  0  0  0  0  0
    1.2772   -2.1965   -1.6398 O   0  5  0  0  0  0  0  0  0  0  0  0
    0.6444    1.3456    2.5000 O   0  0  0  0  0  0  0  0  0  0  0  0
    2.5070   -1.6816   -1.8021 C   0  0  0  0  0  0  0  0  0  0  0  0
    3.0377   -0.6656   -0.9571 C   0  0  0  0  0  0  0  0  0  0  0  0
    4.3486   -0.1869   -1.1446 C   0  0  0  0  0  0  0  0  0  0  0  0
    4.7465    0.5777   -0.4570 H   0  0  0  0  0  0  0  0  0  0  0  0
    5.1619   -0.6692   -2.1829 C   0  0  0  0  0  0  0  0  0  0  0  0
    4.6183   -1.6674   -3.0278 C   0  0  0  0  0  0  0  0  0  0  0  0
    5.2353   -2.0653   -3.8501 H   0  0  0  0  0  0  0  0  0  0  0  0
    3.3272   -2.1669   -2.8499 C   0  0  0  0  0  0  0  0  0  0  0  0
    2.9156   -2.9456   -3.5082 H   0  0  0  0  0  0  0  0  0  0  0  0
    6.5636   -0.1542   -2.3952 C   0  0  0  0  0  0  0  0  0  0  0  0
    6.6822    0.3053   -3.3994 H   0  0  0  0  0  0  0  0  0  0  0  0
    7.3124   -0.9714   -2.3279 H   0  0  0  0  0  0  0  0  0  0  0  0
    6.8338    0.6111   -1.6417 H   0  0  0  0  0  0  0  0  0  0  0  0
    1.0249    2.1866    1.5025 C   0  0  0  0  0  0  0  0  0  0  0  0
    1.7844    1.6296    0.4442 C   0  0  0  0  0  0  0  0  0  0  0  0
    2.2079    2.4527   -0.6130 C   0  0  0  0  0  0  0  0  0  0  0  0
    2.7699    1.9983   -1.4431 H   0  0  0  0  0  0  0  0  0  0  0  0
    1.8929    3.8243   -0.6536 C   0  0  0  0  0  0  0  0  0  0  0  0
    1.1358    4.3563    0.4093 C   0  0  0  0  0  0  0  0  0  0  0  0
    0.8705    5.4253    0.4027 H   0  0  0  0  0  0  0  0  0  0  0  0
    0.7100    3.5570    1.4783 C   0  0  0  0  0  0  0  0  0  0  0  0
    0.1317    3.9947    2.3075 H   0  0  0  0  0  0  0  0  0  0  0  0
    2.2961    4.6815   -1.8258 C   0  0  0  0  0  0  0  0  0  0  0  0
    1.4458    4.8038   -2.5314 H   0  0  0  0  0  0  0  0  0  0  0  0
    3.1330    4.2301   -2.3932 H   0  0  0  0  0  0  0  0  0  0  0  0
    2.6039    5.6976   -1.5066 H   0  0  0  0  0  0  0  0  0  0  0  0
    2.8178   -0.6735    1.9294 C   0  0  0  0  0  0  0  0  0  0  0  0
    2.6718   -1.9766    2.4418 C   0  0  0  0  0  0  0  0  0  0  0  0
    1.9662   -2.6770    1.9718 H   0  0  0  0  0  0  0  0  0  0  0  0
    3.4142   -2.3714    3.5649 C   0  0  0  0  0  0  0  0  0  0  0  0
    3.2944   -3.3902    3.9637 H   0  0  0  0  0  0  0  0  0  0  0  0
    4.2998   -1.4730    4.1807 C   0  0  0  0  0  0  0  0  0  0  0  0
    4.8794   -1.7864    5.0624 H   0  0  0  0  0  0  0  0  0  0  0  0
    4.4406   -0.1713    3.6733 C   0  0  0  0  0  0  0  0  0  0  0  0
    5.1287    0.5393    4.1564 H   0  0  0  0  0  0  0  0  0  0  0  0
    3.7017    0.2307    2.5514 C   0  0  0  0  0  0  0  0  0  0  0  0
    3.8034    1.2548    2.1601 H   0  0  0  0  0  0  0  0  0  0  0  0
   -0.1171    1.7187    2.9894 H   0  0  0  0  0  0  0  0  0  0  0  0
  1  5  1  6  0  0  0
  1 18  1  0  0  0  0
  1 30  1  0  0  0  0
  3 41  1  0  0  0  0
  4  2  1  0  0  0  0
  4  5  1  0  0  0  0
  6  5  2  0  0  0  0
  6  7  1  0  0  0  0
  8  6  1  0  0  0  0
  9 11  1  0  0  0  0
  9  8  2  0  0  0  0
 10  9  1  0  0  0  0
 11  4  2  0  0  0  0
 12 11  1  0  0  0  0
 13 15  1  0  0  0  0
 13  8  1  0  0  0  0
 13 16  1  0  0  0  0
 14 13  1  0  0  0  0
 17  3  1  0  0  0  0
 18 17  2  0  0  0  0
 19 18  1  0  0  0  0
 20 19  1  0  0  0  0
 21 19  2  0  0  0  0
 21 22  1  0  0  0  0
 22 24  2  0  0  0  0
 23 22  1  0  0  0  0
 24 17  1  0  0  0  0
 24 25  1  0  0  0  0
 26 29  1  0  0  0  0
 26 21  1  0  0  0  0
 27 26  1  0  0  0  0
 28 26  1  0  0  0  0
 30 31  2  0  0  0  0
 30 39  1  0  0  0  0
 31 33  1  0  0  0  0
 32 31  1  0  0  0  0
 33 34  1  0  0  0  0
 33 35  2  0  0  0  0
 35 36  1  0  0  0  0
 37 38  1  0  0  0  0
 37 35  1  0  0  0  0
 39 37  2  0  0  0  0
 40 39  1  0  0  0  0
M  CHG  1   2  -1
M  END
