1,2
q = -1.0

 50 53  0  0  0  0  0  0  0  0999 V2000
    0.0249   -1.6455    0.1744 P   0  0  0  0  0  0  0  0  0  0  0  0
    0.5876    1.1987   -0.1832 O   0  5  0  0  0  0  0  0  0  0  0  0
    2.8673    1.1929    0.0516 N   0  0  0  0  0  0  0  0  0  0  0  0
    1.6422    0.4814    0.0342 C   0  0  0  0  0  0  0  0  0  0  0  0
    1.6286   -0.9060    0.2476 C   0  0  0  0  0  0  0  0  0  0  0  0
    2.8986    2.5888    0.3051 C   0  0  0  0  0  0  0  0  0  0  0  0
    2.0063    3.1900    1.2229 C   0  0  0  0  0  0  0  0  0  0  0  0
    2.0644    4.5689    1.4599 C   0  0  0  0  0  0  0  0  0  0  0  0
    3.0143    5.3735    0.8080 C   0  0  0  0  0  0  0  0  0  0  0  0
    3.9091    4.7765   -0.0940 C   0  0  0  0  0  0  0  0  0  0  0  0
    3.8504    3.4004   -0.3511 C   0  0  0  0  0  0  0  0  0  0  0  0
    4.0925    0.5133   -0.2070 C   0  0  0  0  0  0  0  0  0  0  0  0
    5.1607    0.6052    0.7077 C   0  0  0  0  0  0  0  0  0  0  0  0
    6.3693   -0.0554    0.4466 C   0  0  0  0  0  0  0  0  0  0  0  0
    6.5221   -0.8223   -0.7200 C   0  0  0  0  0  0  0  0  0  0  0  0
    5.4581   -0.9139   -1.6334 C   0  0  0  0  0  0  0  0  0  0  0  0
    4.2526   -0.2444   -1.3855 C   0  0  0  0  0  0  0  0  0  0  0  0
   -0.2832   -2.6074    1.7135 C   0  0  0  0  0  0  0  0  0  0  0  0
    0.2419   -3.9043    1.8884 C   0  0  0  0  0  0  0  0  0  0  0  0
    0.0537   -4.5827    3.1020 C   0  0  0  0  0  0  0  0  0  0  0  0
   -0.6623   -3.9755    4.1467 C   0  0  0  0  0  0  0  0  0  0  0  0
   -1.1902   -2.6852    3.9759 C   0  0  0  0  0  0  0  0  0  0  0  0
   -1.0027   -2.0033    2.7646 C   0  0  0  0  0  0  0  0  0  0  0  0
   -0.0271   -2.9356   -1.1367 C   0  0  0  0  0  0  0  0  0  0  0  0
    0.9960   -2.9977   -2.1014 C   0  0  0  0  0  0  0  0  0  0  0  0
    0.9275   -3.9363   -3.1429 C   0  0  0  0  0  0  0  0  0  0  0  0
   -0.1642   -4.8144   -3.2299 C   0  0  0  0  0  0  0  0  0  0  0  0
   -1.1894   -4.7540   -2.2700 C   0  0  0  0  0  0  0  0  0  0  0  0
   -1.1237   -3.8191   -1.2277 C   0  0  0  0  0  0  0  0  0  0  0  0
    2.5278   -1.4716    0.5248 H   0  0  0  0  0  0  0  0  0  0  0  0
    1.2640    2.5691    1.7403 H   0  0  0  0  0  0  0  0  0  0  0  0
    1.3623    5.0189    2.1791 H   0  0  0  0  0  0  0  0  0  0  0  0
    3.0589    6.4551    1.0046 H   0  0  0  0  0  0  0  0  0  0  0  0
    4.6591    5.3902   -0.6165 H   0  0  0  0  0  0  0  0  0  0  0  0
    4.5458    2.9414   -1.0684 H   0  0  0  0  0  0  0  0  0  0  0  0
    5.0302    1.2015    1.6225 H   0  0  0  0  0  0  0  0  0  0  0  0
    7.1964    0.0210    1.1689 H   0  0  0  0  0  0  0  0  0  0  0  0
    7.4697   -1.3447   -0.9193 H   0  0  0  0  0  0  0  0  0  0  0  0
    5.5727   -1.5025   -2.5566 H   0  0  0  0  0  0  0  0  0  0  0  0
    3.4192   -0.2967   -2.1010 H   0  0  0  0  0  0  0  0  0  0  0  0
    0.7958   -4.3869    1.0681 H   0  0  0  0  0  0  0  0  0  0  0  0
    0.4677   -5.5944    3.2321 H   0  0  0  0  0  0  0  0  0  0  0  0
   -0.8123   -4.5118    5.0962 H   0  0  0  0  0  0  0  0  0  0  0  0
   -1.7568   -2.2081    4.7902 H   0  0  0  0  0  0  0  0  0  0  0  0
   -1.4159   -0.9924    2.6156 H   0  0  0  0  0  0  0  0  0  0  0  0
    1.8455   -2.3014   -2.0172 H   0  0  0  0  0  0  0  0  0  0  0  0
    1.7338   -3.9830   -3.8911 H   0  0  0  0  0  0  0  0  0  0  0  0
   -0.2175   -5.5500   -4.0471 H   0  0  0  0  0  0  0  0  0  0  0  0
   -2.0465   -5.4420   -2.3349 H   0  0  0  0  0  0  0  0  0  0  0  0
   -1.9252   -3.7773   -0.4735 H   0  0  0  0  0  0  0  0  0  0  0  0
  1  5  1  0  0  0  0
  1 18  1  0  0  0  0
  2  4  1  0  0  0  0
  3  6  1  0  0  0  0
  4  3  1  0  0  0  0
  4  5  2  0  0  0  0
  5 30  1  0  0  0  0
  6  7  1  0  0  0  0
  7  8  2  0  0  0  0
  7 31  1  0  0  0  0
  8 32  1  0  0  0  0
  9 33  1  0  0  0  0
  9  8  1  0  0  0  0
 10  9  2  0  0  0  0
 11 10  1  0  0  0  0
 11  6  2  0  0  0  0
 12  3  1  0  0  0  0
 12 13  1  0  0  0  0
 13 36  1  0  0  0  0
 14 13  2  0  0  0  0
 14 37  1  0  0  0  0
 15 14  1  0  0  0  0
 16 17  1  0  0  0  0
 16 15  2  0  0  0  0
 17 12  2  0  0  0  0
 18 19  2  0  0  0  0
 18 23  1  0  0  0  0
 19 20  1  0  0  0  0
 20 42  1  0  0  0  0
 20 21  2  0  0  0  0
 21 43  1  0  0  0  0
 22 21  1  0  0  0  0
 22 44  1  0  0  0  0
 23 22  2  0  0  0  0
 24  1  1  0  0  0  0
 25 46  1  0  0  0  0
 25 24  2  0  0  0  0
 26 25  1  0  0  0  0
 27 26  2  0  0  0  0
 27 28  1  0  0  0  0
 28 29  2  0  0  0  0
 29 24  1  0  0  0  0
 29 50  1  0  0  0  0
 34 10  1  0  0  0  0
 35 11  1  0  0  0  0
 38 15  1  0  0  0  0
 39 16  1  0  0  0  0
 40 17  1  0  0  0  0
 41 19  1  0  0  0  0
 45 23  1  0  0  0  0
 47 26  1  0  0  0  0
 48 27  1  0  0  0  0
 49 28  1  0  0  0  0
M  CHG  1   2  -1
M  END
