2,5
q = -1.0

 38 40  0  0  0  0  0  0  0  0999 V2000
    3.1574   -1.5681   -0.0438 I   0  0  0  0  0  0  0  0  0  0  0  0
   -0.1275   -0.7699    0.0360 P   0  0  0  0  0  0  0  0  0  0  0  0
    1.5606   -0.1640    0.0982 C   0  0  0  0  0  0  0  0  0  0  0  0
    1.7168    1.2281    0.0841 C   0  0  0  0  0  0  0  0  0  0  0  0
    0.6914    2.0312   -0.0040 O   0  5  0  0  0  0  0  0  0  0  0  0
   -0.4812   -1.8566    1.4719 C   0  0  0  0  0  0  0  0  0  0  0  0
    0.1704   -3.0989    1.6366 C   0  0  0  0  0  0  0  0  0  0  0  0
   -0.0854   -3.8787    2.7735 C   0  0  0  0  0  0  0  0  0  0  0  0
   -0.9923   -3.4322    3.7489 C   0  0  0  0  0  0  0  0  0  0  0  0
   -1.6468   -2.2014    3.5855 C   0  0  0  0  0  0  0  0  0  0  0  0
   -1.3939   -1.4152    2.4516 C   0  0  0  0  0  0  0  0  0  0  0  0
   -0.2629   -1.8526   -1.4398 C   0  0  0  0  0  0  0  0  0  0  0  0
    0.3546   -1.4143   -2.6303 C   0  0  0  0  0  0  0  0  0  0  0  0
    0.2241   -2.1614   -3.8074 C   0  0  0  0  0  0  0  0  0  0  0  0
   -0.5251   -3.3508   -3.8096 C   0  0  0  0  0  0  0  0  0  0  0  0
   -1.1406   -3.7908   -2.6284 C   0  0  0  0  0  0  0  0  0  0  0  0
   -1.0119   -3.0464   -1.4448 C   0  0  0  0  0  0  0  0  0  0  0  0
    3.0373    1.9279    0.1428 C   0  0  0  0  0  0  0  0  0  0  0  0
    3.2733    3.0003   -0.7438 C   0  0  0  0  0  0  0  0  0  0  0  0
    4.4797    3.7109   -0.6970 C   0  0  0  0  0  0  0  0  0  0  0  0
    5.4575    3.3762    0.2546 C   0  0  0  0  0  0  0  0  0  0  0  0
    5.2194    2.3286    1.1583 C   0  0  0  0  0  0  0  0  0  0  0  0
    4.0198    1.6046    1.1008 C   0  0  0  0  0  0  0  0  0  0  0  0
    0.8814   -3.4527    0.8757 H   0  0  0  0  0  0  0  0  0  0  0  0
    0.4285   -4.8442    2.8976 H   0  0  0  0  0  0  0  0  0  0  0  0
   -1.1922   -4.0495    4.6382 H   0  0  0  0  0  0  0  0  0  0  0  0
   -2.3647   -1.8512    4.3426 H   0  0  0  0  0  0  0  0  0  0  0  0
   -1.9101   -0.4536    2.3045 H   0  0  0  0  0  0  0  0  0  0  0  0
    0.9484   -0.4867   -2.6182 H   0  0  0  0  0  0  0  0  0  0  0  0
    0.7143   -1.8160   -4.7302 H   0  0  0  0  0  0  0  0  0  0  0  0
   -0.6251   -3.9378   -4.7353 H   0  0  0  0  0  0  0  0  0  0  0  0
   -1.7243   -4.7240   -2.6235 H   0  0  0  0  0  0  0  0  0  0  0  0
   -1.4874   -3.4032   -0.5191 H   0  0  0  0  0  0  0  0  0  0  0  0
    2.4933    3.2646   -1.4729 H   0  0  0  0  0  0  0  0  0  0  0  0
    4.6583    4.5348   -1.4049 H   0  0  0  0  0  0  0  0  0  0  0  0
    6.4037    3.9374    0.2958 H   0  0  0  0  0  0  0  0  0  0  0  0
    5.9739    2.0729    1.9179 H   0  0  0  0  0  0  0  0  0  0  0  0
    3.8312    0.7909    1.8156 H   0  0  0  0  0  0  0  0  0  0  0  0
  1  3  1  0  0  0  0
  2  3  1  0  0  0  0
  2  6  1  0  0  0  0
  4  3  2  0  0  0  0
  4 18  1  0  0  0  0
  5  4  1  0  0  0  0
  6  7  2  0  0  0  0
  6 11  1  0  0  0  0
  7  8  1  0  0  0  0
  8 25  1  0  0  0  0
  8  9  2  0  0  0  0
  9 26  1  0  0  0  0
 10  9  1  0  0  0  0
 10 27  1  0  0  0  0
 11 10  2  0  0  0  0
 12  2  1  0  0  0  0
 13 29  1  0  0  0  0
 13 12  2  0  0  0  0
 14 13  1  0  0  0  0
 15 14  2  0  0  0  0
 15 16  1  0  0  0  0
 16 32  1  0  0  0  0
 16 17  2  0  0  0  0
 17 12  1  0  0  0  0
 17 33  1  0  0  0  0
 18 23  1  0  0  0  0
 19 20  1  0  0  0  0
 19 18  2  0  0  0  0
 20 21  2  0  0  0  0
 21 36  1  0  0  0  0
 21 22  1  0  0  0  0
 22 37  1  0  0  0  0
 23 22  2  0  0  0  0
 23 38  1  0  0  0  0
 24  7  1  0  0  0  0
 28 11  1  0  0  0  0
 30 14  1  0  0  0  0
 31 15  1  0  0  0  0
 34 19  1  0  0  0  0
 35 20  1  0  0  0  0
M  CHG  1   5  -1
M  END
