1,2
q = -1.0

 35 36  0  0  1  0  0  0  0  0999 V2000
   -1.7417    0.0609   -0.3886 P   0  0  0  0  0  0  0  0  0  0  0  0
   -1.4382   -1.8400   -2.4925 O   0  5  0  0  0  0  0  0  0  0  0  0
   -3.6031   -2.3110   -2.8283 O   0  0  0  0  0  0  0  0  0  0  0  0
   -2.7174   -1.6106   -2.3540 C   0  0  0  0  0  0  0  0  0  0  0  0
   -1.8274   -2.9011    2.4513 C   0  0  0  0  0  0  0  0  0  0  0  0
   -1.3710   -3.8952    2.5658 H   0  0  0  0  0  0  0  0  0  0  0  0
   -3.1184   -0.3040   -1.5759 C   0  0  1  0  0  0  0  0  0  0  0  0
   -3.0401    0.5001   -2.3437 H   0  0  0  0  0  0  0  0  0  0  0  0
   -1.6170    4.5988    0.6276 C   0  0  0  0  0  0  0  0  0  0  0  0
   -1.5665    5.6735    0.8582 H   0  0  0  0  0  0  0  0  0  0  0  0
   -1.5411   -2.1377    1.3109 C   0  0  0  0  0  0  0  0  0  0  0  0
   -0.8638   -2.5294    0.5351 H   0  0  0  0  0  0  0  0  0  0  0  0
   -4.5397   -0.3606   -1.0173 C   0  0  0  0  0  0  0  0  0  0  0  0
   -5.1306   -0.8713   -1.8077 H   0  0  0  0  0  0  0  0  0  0  0  0
   -4.5604   -1.0513   -0.1475 H   0  0  0  0  0  0  0  0  0  0  0  0
   -2.1286    2.7998   -0.9283 C   0  0  0  0  0  0  0  0  0  0  0  0
   -2.4770    2.4791   -1.9212 H   0  0  0  0  0  0  0  0  0  0  0  0
   -2.0653    4.1682   -0.6312 C   0  0  0  0  0  0  0  0  0  0  0  0
   -2.3704    4.9034   -1.3911 H   0  0  0  0  0  0  0  0  0  0  0  0
   -2.1113   -0.8567    1.1537 C   0  0  0  0  0  0  0  0  0  0  0  0
   -2.6792   -2.3920    3.4433 C   0  0  0  0  0  0  0  0  0  0  0  0
   -2.8984   -2.9888    4.3417 H   0  0  0  0  0  0  0  0  0  0  0  0
   -1.2914    2.2842    1.2954 C   0  0  0  0  0  0  0  0  0  0  0  0
   -0.9872    1.5504    2.0552 H   0  0  0  0  0  0  0  0  0  0  0  0
   -1.7553    1.8417    0.0379 C   0  0  0  0  0  0  0  0  0  0  0  0
   -2.9804   -0.3548    2.1463 C   0  0  0  0  0  0  0  0  0  0  0  0
   -3.4419    0.6369    2.0293 H   0  0  0  0  0  0  0  0  0  0  0  0
   -1.2259    3.6532    1.5878 C   0  0  0  0  0  0  0  0  0  0  0  0
   -0.8594    3.9818    2.5716 H   0  0  0  0  0  0  0  0  0  0  0  0
   -5.1639    0.9839   -0.6485 C   0  0  0  0  0  0  0  0  0  0  0  0
   -4.6171    1.4995    0.1675 H   0  0  0  0  0  0  0  0  0  0  0  0
   -6.2123    0.8523   -0.3134 H   0  0  0  0  0  0  0  0  0  0  0  0
   -5.1768    1.6767   -1.5158 H   0  0  0  0  0  0  0  0  0  0  0  0
   -3.2567   -1.1206    3.2882 C   0  0  0  0  0  0  0  0  0  0  0  0
   -3.9335   -0.7229    4.0595 H   0  0  0  0  0  0  0  0  0  0  0  0
  1 25  1  0  0  0  0
  1 20  1  0  0  0  0
  2  4  1  0  0  0  0
  3  4  2  0  0  0  0
  4  7  1  0  0  0  0
  5  6  1  0  0  0  0
  5 21  1  0  0  0  0
  7  8  1  6  0  0  0
  7 13  1  0  0  0  0
  7  1  1  0  0  0  0
  9 10  1  0  0  0  0
  9 28  1  0  0  0  0
 11  5  2  0  0  0  0
 12 11  1  0  0  0  0
 13 30  1  0  0  0  0
 13 15  1  0  0  0  0
 14 13  1  0  0  0  0
 16 18  1  0  0  0  0
 16 25  2  0  0  0  0
 17 16  1  0  0  0  0
 18  9  2  0  0  0  0
 19 18  1  0  0  0  0
 20 11  1  0  0  0  0
 20 26  2  0  0  0  0
 21 22  1  0  0  0  0
 23 28  2  0  0  0  0
 23 24  1  0  0  0  0
 25 23  1  0  0  0  0
 26 34  1  0  0  0  0
 27 26  1  0  0  0  0
 28 29  1  0  0  0  0
 30 32  1  0  0  0  0
 30 31  1  0  0  0  0
 33 30  1  0  0  0  0
 34 21  2  0  0  0  0
 34 35  1  0  0  0  0
M  CHG  1   2  -1
M  END
