1,2
q = 0.0, confidence = 0.998

 68 73  0  0  0  0  0  0  0  0999 V2000
    1.6078    0.1843    0.3085 P   0  0  0  0  0  0  0  0  0  0  0  0
   -0.7880   -1.4102    0.7614 O   0  0  0  0  0  1  0  0  0  0  0  0
    0.8147    2.9105   -0.9829 S   0  0  0  0  0  0  0  0  0  0  0  0
   -1.7561   -0.4994   -0.0216 P   0  0  0  0  0  4  0  0  0  0  0  0
   -1.7454    2.2871   -0.9293 C   0  0  0  0  0  0  0  0  0  0  0  0
    3.6068    1.0741   -1.4249 C   0  0  0  0  0  0  0  0  0  0  0  0
    0.3533    1.3128   -0.4342 C   0  0  0  0  0  0  0  0  0  0  0  0
    1.1850   -0.5201    3.0295 C   0  0  0  0  0  0  0  0  0  0  0  0
    1.2841    0.5510    2.0965 C   0  0  0  0  0  0  0  0  0  0  0  0
   -1.0203    1.1094   -0.4833 C   0  0  0  0  0  0  0  0  0  0  0  0
    3.1877    1.0300   -0.0661 C   0  0  0  0  0  0  0  0  0  0  0  0
    0.9599    1.8553    2.5188 C   0  0  0  0  0  0  0  0  0  0  0  0
    1.0281    2.6844    1.7978 H   0  0  0  0  0  0  0  0  0  0  0  0
   -0.8539    3.3529   -1.2705 C   0  0  0  0  0  0  0  0  0  0  0  0
    4.0593    1.4890    0.9363 C   0  0  0  0  0  0  0  0  0  0  0  0
    3.7372    1.4383    1.9871 H   0  0  0  0  0  0  0  0  0  0  0  0
   -3.1388    2.5266   -1.0395 C   0  0  0  0  0  0  0  0  0  0  0  0
   -3.8578    1.7528   -0.7374 H   0  0  0  0  0  0  0  0  0  0  0  0
   -3.1617   -0.0751    1.0531 C   0  0  0  0  0  0  0  0  0  0  0  0
   -2.3749   -1.3021   -1.5347 C   0  0  0  0  0  0  0  0  0  0  0  0
   -2.6958    4.7852   -1.8684 C   0  0  0  0  0  0  0  0  0  0  0  0
   -3.0797    5.7489   -2.2349 H   0  0  0  0  0  0  0  0  0  0  0  0
   -1.3165    4.5910   -1.7505 C   0  0  0  0  0  0  0  0  0  0  0  0
   -0.6080    5.3896   -2.0152 H   0  0  0  0  0  0  0  0  0  0  0  0
   -3.5983    3.7606   -1.5045 C   0  0  0  0  0  0  0  0  0  0  0  0
   -4.6813    3.9385   -1.5811 H   0  0  0  0  0  0  0  0  0  0  0  0
   -2.8699    0.6516    2.2273 C   0  0  0  0  0  0  0  0  0  0  0  0
   -1.8359    0.9680    2.4394 H   0  0  0  0  0  0  0  0  0  0  0  0
   -4.4772   -0.4992    0.7882 C   0  0  0  0  0  0  0  0  0  0  0  0
   -4.6945   -1.0765   -0.1237 H   0  0  0  0  0  0  0  0  0  0  0  0
   -2.1319   -2.6866   -1.6489 C   0  0  0  0  0  0  0  0  0  0  0  0
   -1.5476   -3.2186   -0.8788 H   0  0  0  0  0  0  0  0  0  0  0  0
   -3.0489   -0.6106   -2.5642 C   0  0  0  0  0  0  0  0  0  0  0  0
   -3.2142    0.4741   -2.5002 H   0  0  0  0  0  0  0  0  0  0  0  0
   -5.5048   -0.1806    1.6904 C   0  0  0  0  0  0  0  0  0  0  0  0
   -6.5345   -0.5101    1.4850 H   0  0  0  0  0  0  0  0  0  0  0  0
   -3.4973   -1.3108   -3.6927 C   0  0  0  0  0  0  0  0  0  0  0  0
   -4.0215   -0.7706   -4.4956 H   0  0  0  0  0  0  0  0  0  0  0  0
    2.7012    0.6172   -2.3232 O   0  0  0  0  0  0  0  0  0  0  0  0
    1.5673   -1.7415    2.6141 O   0  0  0  0  0  0  0  0  0  0  0  0
    0.7040   -0.2641    4.3334 C   0  0  0  0  0  0  0  0  0  0  0  0
    0.6012   -1.0936    5.0462 H   0  0  0  0  0  0  0  0  0  0  0  0
    0.5180    2.1114    3.8249 C   0  0  0  0  0  0  0  0  0  0  0  0
    0.2697    3.1379    4.1317 H   0  0  0  0  0  0  0  0  0  0  0  0
    5.7276    2.0379   -0.7348 C   0  0  0  0  0  0  0  0  0  0  0  0
    6.7206    2.4309   -1.0015 H   0  0  0  0  0  0  0  0  0  0  0  0
   -2.5780   -3.3734   -2.7884 C   0  0  0  0  0  0  0  0  0  0  0  0
   -2.3639   -4.4488   -2.8795 H   0  0  0  0  0  0  0  0  0  0  0  0
    1.0143   -2.9103    3.2147 C   0  0  0  0  0  0  0  0  0  0  0  0
    1.1568   -3.7202    2.4729 H   0  0  0  0  0  0  0  0  0  0  0  0
    1.5302   -3.1579    4.1679 H   0  0  0  0  0  0  0  0  0  0  0  0
   -0.0733   -2.7791    3.3911 H   0  0  0  0  0  0  0  0  0  0  0  0
    5.3258    1.9975    0.6080 C   0  0  0  0  0  0  0  0  0  0  0  0
    5.9975    2.3554    1.4017 H   0  0  0  0  0  0  0  0  0  0  0  0
    0.3778    1.0407    4.7231 C   0  0  0  0  0  0  0  0  0  0  0  0
    0.0148    1.2218    5.7467 H   0  0  0  0  0  0  0  0  0  0  0  0
   -3.9010    0.9639    3.1222 C   0  0  0  0  0  0  0  0  0  0  0  0
   -3.6742    1.5322    4.0370 H   0  0  0  0  0  0  0  0  0  0  0  0
   -3.2651   -2.6927   -3.8043 C   0  0  0  0  0  0  0  0  0  0  0  0
   -3.6116   -3.2365   -4.6967 H   0  0  0  0  0  0  0  0  0  0  0  0
    4.8790    1.5782   -1.7547 C   0  0  0  0  0  0  0  0  0  0  0  0
    5.2110    1.6135   -2.8008 H   0  0  0  0  0  0  0  0  0  0  0  0
   -5.2180    0.5520    2.8530 C   0  0  0  0  0  0  0  0  0  0  0  0
   -6.0261    0.8013    3.5576 H   0  0  0  0  0  0  0  0  0  0  0  0
    3.0735    0.4740   -3.6818 C   0  0  0  0  0  0  0  0  0  0  0  0
    2.2060    0.0151   -4.1897 H   0  0  0  0  0  0  0  0  0  0  0  0
    3.2968    1.4574   -4.1515 H   0  0  0  0  0  0  0  0  0  0  0  0
    3.9549   -0.1950   -3.7904 H   0  0  0  0  0  0  0  0  0  0  0  0
  1  9  1  0  0  0  0
  3  7  1  0  0  0  0
  4  2  1  0  0  0  0
  4 19  1  0  0  0  0
  5 10  1  0  0  0  0
  6 11  1  0  0  0  0
  7  1  1  0  0  0  0
  8 41  1  0  0  0  0
  9 12  1  0  0  0  0
  9  8  2  0  0  0  0
 10  7  2  0  0  0  0
 10  4  1  0  0  0  0
 11  1  1  0  0  0  0
 11 15  2  0  0  0  0
 12 43  2  0  0  0  0
 13 12  1  0  0  0  0
 14  3  1  0  0  0  0
 14  5  2  0  0  0  0
 15 16  1  0  0  0  0
 17  5  1  0  0  0  0
 17 18  1  0  0  0  0
 19 27  1  0  0  0  0
 20  4  1  0  0  0  0
 21 23  2  0  0  0  0
 21 25  1  0  0  0  0
 22 21  1  0  0  0  0
 23 14  1  0  0  0  0
 24 23  1  0  0  0  0
 25 17  2  0  0  0  0
 26 25  1  0  0  0  0
 27 28  1  0  0  0  0
 27 57  2  0  0  0  0
 29 19  2  0  0  0  0
 29 35  1  0  0  0  0
 30 29  1  0  0  0  0
 31 20  1  0  0  0  0
 31 32  1  0  0  0  0
 33 34  1  0  0  0  0
 33 20  2  0  0  0  0
 35 63  2  0  0  0  0
 36 35  1  0  0  0  0
 37 33  1  0  0  0  0
 38 37  1  0  0  0  0
 39  6  1  0  0  0  0
 40  8  1  0  0  0  0
 40 49  1  0  0  0  0
 41 55  2  0  0  0  0
 41 42  1  0  0  0  0
 43 44  1  0  0  0  0
 43 55  1  0  0  0  0
 45 53  2  0  0  0  0
 46 45  1  0  0  0  0
 47 31  2  0  0  0  0
 48 47  1  0  0  0  0
 49 52  1  0  0  0  0
 49 51  1  0  0  0  0
 50 49  1  0  0  0  0
 53 15  1  0  0  0  0
 53 54  1  0  0  0  0
 55 56  1  0  0  0  0
 57 58  1  0  0  0  0
 59 37  2  0  0  0  0
 59 47  1  0  0  0  0
 60 59  1  0  0  0  0
 61  6  2  0  0  0  0
 61 45  1  0  0  0  0
 62 61  1  0  0  0  0
 63 57  1  0  0  0  0
 63 64  1  0  0  0  0
 65 39  1  0  0  0  0
 66 65  1  0  0  0  0
 67 65  1  0  0  0  0
 68 65  1  0  0  0  0
M  END
