40,42
q = -1.0, confidence = 0.002

 42 44  0  0  1  0  0  0  0  0999 V2000
   -2.6664    2.2259   -1.6313 C   0  0  0  0  0  0  0  0  0  0  0  0
   -3.5394    1.2239   -0.8337 C   0  0  0  0  0  0  0  0  0  0  0  0
   -3.8834    0.4710   -1.5764 H   0  0  0  0  0  0  0  0  0  0  0  0
   -4.4445    1.7870   -0.5308 H   0  0  0  0  0  0  0  0  0  0  0  0
   -2.9883    0.4809    0.3944 C   0  0  2  0  0  0  0  0  0  0  0  0
   -3.7658   -0.2350    0.7384 H   0  0  0  0  0  0  0  0  0  0  0  0
   -2.6013    1.3219    1.5952 C   0  0  0  0  0  0  0  0  0  0  0  0
   -1.7697    2.4579    1.4833 C   0  0  0  0  0  0  0  0  0  0  0  0
   -1.4187    2.7752    0.4916 H   0  0  0  0  0  0  0  0  0  0  0  0
   -1.3731    3.1661    2.6277 C   0  0  0  0  0  0  0  0  0  0  0  0
   -0.7254    4.0499    2.5194 H   0  0  0  0  0  0  0  0  0  0  0  0
   -1.7958    2.7560    3.9024 C   0  0  0  0  0  0  0  0  0  0  0  0
   -1.4806    3.3131    4.7978 H   0  0  0  0  0  0  0  0  0  0  0  0
   -2.6283    1.6331    4.0250 C   0  0  0  0  0  0  0  0  0  0  0  0
   -2.9692    1.3011    5.0174 H   0  0  0  0  0  0  0  0  0  0  0  0
   -3.0237    0.9252    2.8806 C   0  0  0  0  0  0  0  0  0  0  0  0
   -3.6627    0.0338    2.9843 H   0  0  0  0  0  0  0  0  0  0  0  0
   -1.1347   -1.5351    1.4419 C   0  0  0  0  0  0  0  0  0  0  0  0
   -0.3250   -0.8901    2.4013 C   0  0  0  0  0  0  0  0  0  0  0  0
    0.0676    0.1160    2.1906 H   0  0  0  0  0  0  0  0  0  0  0  0
   -0.0108   -1.5338    3.6044 C   0  0  0  0  0  0  0  0  0  0  0  0
    0.6186   -1.0206    4.3466 H   0  0  0  0  0  0  0  0  0  0  0  0
   -0.4868   -2.8312    3.8555 C   0  0  0  0  0  0  0  0  0  0  0  0
   -0.2307   -3.3401    4.7972 H   0  0  0  0  0  0  0  0  0  0  0  0
   -1.2795   -3.4826    2.8982 C   0  0  0  0  0  0  0  0  0  0  0  0
   -1.6445   -4.5041    3.0847 H   0  0  0  0  0  0  0  0  0  0  0  0
   -1.6052   -2.8385    1.6938 C   0  0  0  0  0  0  0  0  0  0  0  0
   -2.2156   -3.3620    0.9434 H   0  0  0  0  0  0  0  0  0  0  0  0
   -2.2157   -1.8299   -1.2709 C   0  0  0  0  0  0  0  0  0  0  0  0
   -3.4905   -2.4129   -1.1052 C   0  0  0  0  0  0  0  0  0  0  0  0
   -4.1196   -2.1425   -0.2432 H   0  0  0  0  0  0  0  0  0  0  0  0
   -3.9699   -3.3386   -2.0436 C   0  0  0  0  0  0  0  0  0  0  0  0
   -4.9673   -3.7843   -1.9103 H   0  0  0  0  0  0  0  0  0  0  0  0
   -3.1826   -3.6910   -3.1520 C   0  0  0  0  0  0  0  0  0  0  0  0
   -3.5627   -4.4155   -3.8880 H   0  0  0  0  0  0  0  0  0  0  0  0
   -1.9165   -3.1106   -3.3252 C   0  0  0  0  0  0  0  0  0  0  0  0
   -1.3006   -3.3767   -4.1973 H   0  0  0  0  0  0  0  0  0  0  0  0
   -1.4359   -2.1795   -2.3925 C   0  0  0  0  0  0  0  0  0  0  0  0
   -0.4525   -1.7012   -2.5283 H   0  0  0  0  0  0  0  0  0  0  0  0
   -1.3725    2.0402   -1.7033 O   0  5  0  0  0  0  0  0  0  0  0  0
   -3.2461    3.1403   -2.2132 O   0  0  0  0  0  0  0  0  0  0  0  0
   -1.5282   -0.6035   -0.0909 P   0  0  0  0  0  0  0  0  0  0  0  0
  1  2  1  0  0  0  0
  2  4  1  0  0  0  0
  2  5  1  0  0  0  0
  3  2  1  0  0  0  0
  5  6  1  1  0  0  0
  5  7  1  0  0  0  0
  7 16  1  0  0  0  0
  8  7  2  0  0  0  0
  8 10  1  0  0  0  0
  9  8  1  0  0  0  0
 10 12  2  0  0  0  0
 11 10  1  0  0  0  0
 12 14  1  0  0  0  0
 12 13  1  0  0  0  0
 14 15  1  0  0  0  0
 16 17  1  0  0  0  0
 16 14  2  0  0  0  0
 18 27  2  0  0  0  0
 18 19  1  0  0  0  0
 19 21  2  0  0  0  0
 20 19  1  0  0  0  0
 21 23  1  0  0  0  0
 21 22  1  0  0  0  0
 23 24  1  0  0  0  0
 25 26  1  0  0  0  0
 25 23  2  0  0  0  0
 27 25  1  0  0  0  0
 28 27  1  0  0  0  0
 29 30  1  0  0  0  0
 29 42  1  0  0  0  0
 30 31  1  0  0  0  0
 32 33  1  0  0  0  0
 32 30  2  0  0  0  0
 34 32  1  0  0  0  0
 35 34  1  0  0  0  0
 36 34  2  0  0  0  0
 36 38  1  0  0  0  0
 37 36  1  0  0  0  0
 38 29  2  0  0  0  0
 39 38  1  0  0  0  0
 40  1  1  0  0  0  0
 41  1  2  0  0  0  0
 42  5  1  0  0  0  0
 42 18  1  0  0  0  0
M  CHG  1  40  -1
M  END
