2,3
q = -1.0

 48 50  0  0  1  0  0  0  0  0999 V2000
    1.6427   -1.9658    1.4038 S   0  0  0  0  0  0  0  0  0  0  0  0
   -1.0016    0.1505    0.0569 P   0  0  0  0  0  0  0  0  0  0  0  0
    1.4785   -0.4502    1.7674 O   0  0  0  0  0  1  0  0  0  0  0  0
    1.9466   -2.7411    2.6303 O   0  0  0  0  0  1  0  0  0  0  0  0
    2.5505   -2.1486    0.2289 O   0  0  0  0  0  1  0  0  0  0  0  0
    0.1322   -1.4690   -2.0192 O   0  0  0  0  0  0  0  0  0  0  0  0
   -4.0579    0.1608    0.6129 O   0  0  0  0  0  0  0  0  0  0  0  0
   -0.0399   -2.4699    0.8179 C   0  0  2  0  0  0  0  0  0  0  0  0
    0.0990   -2.6546   -0.2606 H   0  0  0  0  0  0  0  0  0  0  0  0
   -1.1686   -1.4401    1.0388 C   0  0  2  0  0  0  0  0  0  0  0  0
   -1.0723   -1.0640    2.0802 H   0  0  0  0  0  0  0  0  0  0  0  0
   -2.4672   -2.2785    0.8814 C   0  0  0  0  0  0  0  0  0  0  0  0
   -3.2172   -1.9649    1.6302 H   0  0  0  0  0  0  0  0  0  0  0  0
   -2.9260   -2.1068   -0.1121 H   0  0  0  0  0  0  0  0  0  0  0  0
   -2.0369   -3.7630    1.0588 C   0  0  0  0  0  0  0  0  0  0  0  0
   -2.1078   -4.2933    0.0869 H   0  0  0  0  0  0  0  0  0  0  0  0
   -2.6885   -4.3093    1.7696 H   0  0  0  0  0  0  0  0  0  0  0  0
   -0.5714   -3.7181    1.5208 C   0  0  0  0  0  0  0  0  0  0  0  0
    0.0085   -4.6261    1.2669 H   0  0  0  0  0  0  0  0  0  0  0  0
   -0.4840   -3.5740    2.6173 H   0  0  0  0  0  0  0  0  0  0  0  0
   -2.0574    1.3848    0.9278 C   0  0  0  0  0  0  0  0  0  0  0  0
   -1.3972    2.5098    1.4596 C   0  0  0  0  0  0  0  0  0  0  0  0
   -0.3102    2.5897    1.2874 H   0  0  0  0  0  0  0  0  0  0  0  0
   -2.0859    3.4925    2.1860 C   0  0  0  0  0  0  0  0  0  0  0  0
   -1.5437    4.3589    2.5912 H   0  0  0  0  0  0  0  0  0  0  0  0
   -3.4645    3.3532    2.3884 C   0  0  0  0  0  0  0  0  0  0  0  0
   -4.0225    4.1136    2.9561 H   0  0  0  0  0  0  0  0  0  0  0  0
   -4.1530    2.2445    1.8724 C   0  0  0  0  0  0  0  0  0  0  0  0
   -5.2339    2.1518    2.0408 H   0  0  0  0  0  0  0  0  0  0  0  0
   -3.4570    1.2570    1.1466 C   0  0  0  0  0  0  0  0  0  0  0  0
   -5.4523   -0.0201    0.7752 C   0  0  0  0  0  0  0  0  0  0  0  0
   -6.0316    0.8059    0.3063 H   0  0  0  0  0  0  0  0  0  0  0  0
   -5.7368   -0.0968    1.8477 H   0  0  0  0  0  0  0  0  0  0  0  0
   -5.6997   -0.9700    0.2665 H   0  0  0  0  0  0  0  0  0  0  0  0
   -1.6973   -0.0533   -1.6346 C   0  0  0  0  0  0  0  0  0  0  0  0
   -2.7940    0.6774   -2.1230 C   0  0  0  0  0  0  0  0  0  0  0  0
   -3.3667    1.3132   -1.4355 H   0  0  0  0  0  0  0  0  0  0  0  0
   -3.1494    0.6296   -3.4810 C   0  0  0  0  0  0  0  0  0  0  0  0
   -4.0123    1.2080   -3.8418 H   0  0  0  0  0  0  0  0  0  0  0  0
   -2.3898   -0.1418   -4.3714 C   0  0  0  0  0  0  0  0  0  0  0  0
   -2.6582   -0.1801   -5.4382 H   0  0  0  0  0  0  0  0  0  0  0  0
   -1.2737   -0.8617   -3.9178 C   0  0  0  0  0  0  0  0  0  0  0  0
   -0.6713   -1.4515   -4.6220 H   0  0  0  0  0  0  0  0  0  0  0  0
   -0.9307   -0.8233   -2.5538 C   0  0  0  0  0  0  0  0  0  0  0  0
    1.1717   -1.9917   -2.8358 C   0  0  0  0  0  0  0  0  0  0  0  0
    1.5809   -1.2043   -3.5051 H   0  0  0  0  0  0  0  0  0  0  0  0
    0.8175   -2.8498   -3.4480 H   0  0  0  0  0  0  0  0  0  0  0  0
    1.9498   -2.3225   -2.1214 H   0  0  0  0  0  0  0  0  0  0  0  0
  1  3  1  0  0  0  0
  1  4  1  0  0  0  0
  2 21  1  0  0  0  0
  2 10  1  0  0  0  0
  5  1  1  0  0  0  0
  7 31  1  0  0  0  0
  7 30  1  0  0  0  0
  8  9  1  6  0  0  0
  8 10  1  0  0  0  0
  8  1  1  0  0  0  0
  8 18  1  0  0  0  0
 10 11  1  1  0  0  0
 12 10  1  0  0  0  0
 12 15  1  0  0  0  0
 12 13  1  0  0  0  0
 14 12  1  0  0  0  0
 15 18  1  0  0  0  0
 15 17  1  0  0  0  0
 16 15  1  0  0  0  0
 18 20  1  0  0  0  0
 19 18  1  0  0  0  0
 21 30  2  0  0  0  0
 21 22  1  0  0  0  0
 22 24  2  0  0  0  0
 23 22  1  0  0  0  0
 24 26  1  0  0  0  0
 24 25  1  0  0  0  0
 26 27  1  0  0  0  0
 28 29  1  0  0  0  0
 28 26  2  0  0  0  0
 30 28  1  0  0  0  0
 31 33  1  0  0  0  0
 32 31  1  0  0  0  0
 34 31  1  0  0  0  0
 35  2  1  0  0  0  0
 36 35  1  0  0  0  0
 36 37  1  0  0  0  0
 38 36  2  0  0  0  0
 39 38  1  0  0  0  0
 40 42  2  0  0  0  0
 40 38  1  0  0  0  0
 41 40  1  0  0  0  0
 42 44  1  0  0  0  0
 43 42  1  0  0  0  0
 44  6  1  0  0  0  0
 44 35  2  0  0  0  0
 45 48  1  0  0  0  0
 45  6  1  0  0  0  0
 46 45  1  0  0  0  0
 47 45  1  0  0  0  0
M  END
