1,2
q = -1.0

 48 51  0  0  1  0  0  0  0  0999 V2000
    0.3237    0.7834   -0.0929 P   0  0  0  0  0  0  0  0  0  0  0  0
    0.8675   -2.1729    0.0051 O   0  5  0  0  0  0  0  0  0  0  0  0
    1.9107    0.0088   -0.0861 C   0  0  0  0  0  0  0  0  0  0  0  0
    1.8887   -1.3810    0.0285 C   0  0  0  0  0  0  0  0  0  0  0  0
    3.3282   -1.8264    0.3286 C   0  0  2  0  0  0  0  0  0  0  0  0
    3.5364   -1.3392    1.8084 C   0  0  0  0  0  0  0  0  0  0  0  0
    2.7151   -1.7063    2.4555 H   0  0  0  0  0  0  0  0  0  0  0  0
    4.4798   -1.7597    2.2141 H   0  0  0  0  0  0  0  0  0  0  0  0
    3.5887    0.2127    1.7032 C   0  0  0  0  0  0  0  0  0  0  0  0
    4.5690    0.6137    2.0344 H   0  0  0  0  0  0  0  0  0  0  0  0
    2.8078    0.7119    2.3078 H   0  0  0  0  0  0  0  0  0  0  0  0
    3.3422    0.4512    0.1822 C   0  0  1  0  0  0  0  0  0  0  0  0
    3.6193    1.4626   -0.1771 H   0  0  0  0  0  0  0  0  0  0  0  0
    4.1397   -0.7354   -0.4709 C   0  0  0  0  0  0  0  0  0  0  0  0
    5.6451   -0.7209   -0.1691 C   0  0  0  0  0  0  0  0  0  0  0  0
    6.1337   -1.6275   -0.5819 H   0  0  0  0  0  0  0  0  0  0  0  0
    5.8848   -0.6765    0.9093 H   0  0  0  0  0  0  0  0  0  0  0  0
    6.1216    0.1572   -0.6529 H   0  0  0  0  0  0  0  0  0  0  0  0
    3.9705   -0.8419   -1.9929 C   0  0  0  0  0  0  0  0  0  0  0  0
    2.9088   -0.9103   -2.2950 H   0  0  0  0  0  0  0  0  0  0  0  0
    4.4967   -1.7376   -2.3828 H   0  0  0  0  0  0  0  0  0  0  0  0
    4.4175    0.0416   -2.4952 H   0  0  0  0  0  0  0  0  0  0  0  0
    3.6246   -3.2925    0.0822 C   0  0  0  0  0  0  0  0  0  0  0  0
    2.9360   -3.9274    0.6754 H   0  0  0  0  0  0  0  0  0  0  0  0
    4.6648   -3.5507    0.3680 H   0  0  0  0  0  0  0  0  0  0  0  0
    3.4793   -3.5605   -0.9838 H   0  0  0  0  0  0  0  0  0  0  0  0
    0.1632    1.8760   -1.5653 C   0  0  0  0  0  0  0  0  0  0  0  0
    1.2020    1.9075   -2.5161 C   0  0  0  0  0  0  0  0  0  0  0  0
    2.0959    1.2881   -2.3496 H   0  0  0  0  0  0  0  0  0  0  0  0
    1.0871    2.7099   -3.6623 C   0  0  0  0  0  0  0  0  0  0  0  0
    1.9058    2.7308   -4.3979 H   0  0  0  0  0  0  0  0  0  0  0  0
   -0.0677    3.4796   -3.8703 C   0  0  0  0  0  0  0  0  0  0  0  0
   -0.1589    4.1069   -4.7703 H   0  0  0  0  0  0  0  0  0  0  0  0
   -1.1112    3.4424   -2.9294 C   0  0  0  0  0  0  0  0  0  0  0  0
   -2.0237    4.0358   -3.0934 H   0  0  0  0  0  0  0  0  0  0  0  0
   -1.0002    2.6442   -1.7826 C   0  0  0  0  0  0  0  0  0  0  0  0
   -1.8279    2.6078   -1.0589 H   0  0  0  0  0  0  0  0  0  0  0  0
    0.2248    1.9429    1.3344 C   0  0  0  0  0  0  0  0  0  0  0  0
   -0.1125    1.4109    2.5975 C   0  0  0  0  0  0  0  0  0  0  0  0
   -0.3938    0.3476    2.6709 H   0  0  0  0  0  0  0  0  0  0  0  0
   -0.1014    2.2295    3.7344 C   0  0  0  0  0  0  0  0  0  0  0  0
   -0.3716    1.8085    4.7148 H   0  0  0  0  0  0  0  0  0  0  0  0
    0.2451    3.5873    3.6212 C   0  0  0  0  0  0  0  0  0  0  0  0
    0.2505    4.2311    4.5139 H   0  0  0  0  0  0  0  0  0  0  0  0
    0.5784    4.1217    2.3669 C   0  0  0  0  0  0  0  0  0  0  0  0
    0.8486    5.1849    2.2744 H   0  0  0  0  0  0  0  0  0  0  0  0
    0.5680    3.3050    1.2247 C   0  0  0  0  0  0  0  0  0  0  0  0
    0.8267    3.7271    0.2417 H   0  0  0  0  0  0  0  0  0  0  0  0
  1  3  1  0  0  0  0
  1 38  1  0  0  0  0
  2  4  1  0  0  0  0
  3  4  2  0  0  0  0
  3 12  1  0  0  0  0
  4  5  1  0  0  0  0
  5 23  1  6  0  0  0
  5  6  1  0  0  0  0
  6  8  1  0  0  0  0
  6  7  1  0  0  0  0
  9  6  1  0  0  0  0
  9 10  1  0  0  0  0
  9 11  1  0  0  0  0
 12 13  1  6  0  0  0
 12  9  1  0  0  0  0
 14 15  1  0  0  0  0
 14 12  1  0  0  0  0
 14  5  1  0  0  0  0
 15 17  1  0  0  0  0
 16 15  1  0  0  0  0
 18 15  1  0  0  0  0
 19 14  1  0  0  0  0
 20 19  1  0  0  0  0
 21 19  1  0  0  0  0
 22 19  1  0  0  0  0
 23 25  1  0  0  0  0
 23 24  1  0  0  0  0
 26 23  1  0  0  0  0
 27  1  1  0  0  0  0
 28 29  1  0  0  0  0
 28 27  2  0  0  0  0
 30 28  1  0  0  0  0
 31 30  1  0  0  0  0
 32 30  2  0  0  0  0
 32 34  1  0  0  0  0
 33 32  1  0  0  0  0
 34 36  2  0  0  0  0
 35 34  1  0  0  0  0
 36 27  1  0  0  0  0
 36 37  1  0  0  0  0
 38 39  1  0  0  0  0
 39 40  1  0  0  0  0
 39 41  2  0  0  0  0
 41 42  1  0  0  0  0
 43 41  1  0  0  0  0
 43 44  1  0  0  0  0
 45 43  2  0  0  0  0
 46 45  1  0  0  0  0
 47 38  2  0  0  0  0
 47 45  1  0  0  0  0
 48 47  1  0  0  0  0
M  CHG  1   2  -1
M  END
