44,47
q = -1.0, confidence = 0.018

 47 49  0  0  1  0  0  0  0  0999 V2000
    0.3943    6.0884    0.5788 C   0  0  0  0  0  0  0  0  0  0  0  0
    0.5857    6.0566    1.6711 H   0  0  0  0  0  0  0  0  0  0  0  0
   -0.6148    6.4905    0.3753 H   0  0  0  0  0  0  0  0  0  0  0  0
    1.1675    6.7373    0.1188 H   0  0  0  0  0  0  0  0  0  0  0  0
    1.6072    4.1121    0.1773 C   0  0  0  0  0  0  0  0  0  0  0  0
    1.5632    2.7400   -0.4530 C   0  0  0  0  0  0  0  0  0  0  0  0
    2.6379    1.9102   -0.2160 C   0  0  0  0  0  0  0  0  0  0  0  0
    3.4650    2.2605    0.4152 H   0  0  0  0  0  0  0  0  0  0  0  0
    2.6639    0.5473   -0.8121 C   0  0  1  0  0  0  0  0  0  0  0  0
    2.3619    0.5985   -1.8823 H   0  0  0  0  0  0  0  0  0  0  0  0
    3.9567   -0.2109   -0.6730 C   0  0  0  0  0  0  0  0  0  0  0  0
    4.5309   -0.8391   -1.7975 C   0  0  0  0  0  0  0  0  0  0  0  0
    4.0349   -0.7426   -2.7758 H   0  0  0  0  0  0  0  0  0  0  0  0
    5.7093   -1.5903   -1.6801 C   0  0  0  0  0  0  0  0  0  0  0  0
    6.1418   -2.0711   -2.5708 H   0  0  0  0  0  0  0  0  0  0  0  0
    6.3315   -1.7317   -0.4297 C   0  0  0  0  0  0  0  0  0  0  0  0
    7.2535   -2.3250   -0.3331 H   0  0  0  0  0  0  0  0  0  0  0  0
    5.7746   -1.1025    0.6963 C   0  0  0  0  0  0  0  0  0  0  0  0
    6.2593   -1.2014    1.6796 H   0  0  0  0  0  0  0  0  0  0  0  0
    4.6010   -0.3442    0.5761 C   0  0  0  0  0  0  0  0  0  0  0  0
    4.1710    0.1425    1.4636 H   0  0  0  0  0  0  0  0  0  0  0  0
    1.5161   -0.7582    1.6368 C   0  0  0  0  0  0  0  0  0  0  0  0
    1.4840    0.3771    2.4796 C   0  0  0  0  0  0  0  0  0  0  0  0
    1.2379    1.3612    2.0546 H   0  0  0  0  0  0  0  0  0  0  0  0
    1.7689    0.2505    3.8456 C   0  0  0  0  0  0  0  0  0  0  0  0
    1.7519    1.1431    4.4891 H   0  0  0  0  0  0  0  0  0  0  0  0
    2.0597   -1.0102    4.3936 C   0  0  0  0  0  0  0  0  0  0  0  0
    2.2738   -1.1090    5.4686 H   0  0  0  0  0  0  0  0  0  0  0  0
    2.0588   -2.1447    3.5686 C   0  0  0  0  0  0  0  0  0  0  0  0
    2.2674   -3.1382    3.9938 H   0  0  0  0  0  0  0  0  0  0  0  0
    1.7917   -2.0221    2.1958 C   0  0  0  0  0  0  0  0  0  0  0  0
    1.7882   -2.9195    1.5619 H   0  0  0  0  0  0  0  0  0  0  0  0
    1.2083   -2.0963   -0.9791 C   0  0  0  0  0  0  0  0  0  0  0  0
    0.1212   -2.4532   -1.8063 C   0  0  0  0  0  0  0  0  0  0  0  0
   -0.7423   -1.7731   -1.8708 H   0  0  0  0  0  0  0  0  0  0  0  0
    0.1382   -3.6602   -2.5196 C   0  0  0  0  0  0  0  0  0  0  0  0
   -0.7187   -3.9283   -3.1559 H   0  0  0  0  0  0  0  0  0  0  0  0
    1.2403   -4.5234   -2.4170 C   0  0  0  0  0  0  0  0  0  0  0  0
    1.2533   -5.4714   -2.9763 H   0  0  0  0  0  0  0  0  0  0  0  0
    2.3268   -4.1752   -1.5987 C   0  0  0  0  0  0  0  0  0  0  0  0
    3.1966   -4.8447   -1.5176 H   0  0  0  0  0  0  0  0  0  0  0  0
    2.3172   -2.9694   -0.8824 C   0  0  0  0  0  0  0  0  0  0  0  0
    3.1798   -2.7091   -0.2545 H   0  0  0  0  0  0  0  0  0  0  0  0
    0.5038    2.4168   -1.1555 O   0  5  0  0  0  0  0  0  0  0  0  0
    0.4235    4.7770    0.0124 O   0  0  0  0  0  0  0  0  0  0  0  0
    2.5484    4.5936    0.7867 O   0  0  0  0  0  0  0  0  0  0  0  0
    1.1495   -0.4699   -0.1377 P   0  0  0  0  0  0  0  0  0  0  0  0
  1  2  1  0  0  0  0
  3  1  1  0  0  0  0
  4  1  1  0  0  0  0
  5 46  2  0  0  0  0
  6  7  2  0  0  0  0
  6  5  1  0  0  0  0
  7  8  1  0  0  0  0
  9 10  1  6  0  0  0
  9 11  1  0  0  0  0
  9  7  1  0  0  0  0
  9 47  1  0  0  0  0
 11 20  1  0  0  0  0
 12 14  1  0  0  0  0
 12 11  2  0  0  0  0
 13 12  1  0  0  0  0
 14 16  2  0  0  0  0
 15 14  1  0  0  0  0
 16 17  1  0  0  0  0
 16 18  1  0  0  0  0
 18 19  1  0  0  0  0
 20 18  2  0  0  0  0
 20 21  1  0  0  0  0
 22 31  2  0  0  0  0
 22 23  1  0  0  0  0
 23 25  2  0  0  0  0
 24 23  1  0  0  0  0
 25 27  1  0  0  0  0
 25 26  1  0  0  0  0
 27 28  1  0  0  0  0
 29 30  1  0  0  0  0
 29 27  2  0  0  0  0
 31 29  1  0  0  0  0
 32 31  1  0  0  0  0
 33 42  1  0  0  0  0
 33 47  1  0  0  0  0
 34 33  2  0  0  0  0
 35 34  1  0  0  0  0
 36 38  2  0  0  0  0
 36 34  1  0  0  0  0
 37 36  1  0  0  0  0
 38 40  1  0  0  0  0
 39 38  1  0  0  0  0
 40 41  1  0  0  0  0
 40 42  2  0  0  0  0
 42 43  1  0  0  0  0
 44  6  1  0  0  0  0
 45  5  1  0  0  0  0
 45  1  1  0  0  0  0
 47 22  1  0  0  0  0
M  CHG  1  44  -1
M  END
