2,3
q = -1.0

 36 37  0  0  0  0  0  0  0  0999 V2000
   -3.7986   -1.5312    0.2422 S   0  0  0  0  0  0  0  0  0  0  0  0
   -1.3685    0.4541   -1.1530 P   0  0  0  0  0  0  0  0  0  0  0  0
   -0.7803   -2.1807   -0.7165 O   0  5  0  0  0  0  0  0  0  0  0  0
   -1.5595   -3.5813   -2.2604 O   0  0  0  0  0  0  0  0  0  0  0  0
   -1.7245   -2.9299   -1.2272 C   0  0  0  0  0  0  0  0  0  0  0  0
   -3.0855   -3.0326   -0.5051 C   0  0  0  0  0  0  0  0  0  0  0  0
   -4.0587   -0.4571   -1.2215 C   0  0  0  0  0  0  0  0  0  0  0  0
   -2.8344   -0.1879   -2.1003 C   0  0  0  0  0  0  0  0  0  0  0  0
   -1.6825    2.2624   -1.0285 C   0  0  0  0  0  0  0  0  0  0  0  0
   -1.6356    2.9297    0.2112 C   0  0  0  0  0  0  0  0  0  0  0  0
   -1.8360    4.3196    0.2626 C   0  0  0  0  0  0  0  0  0  0  0  0
   -2.0855    5.0467   -0.9094 C   0  0  0  0  0  0  0  0  0  0  0  0
   -2.1310    4.3836   -2.1485 C   0  0  0  0  0  0  0  0  0  0  0  0
   -1.9262    2.9997   -2.2103 C   0  0  0  0  0  0  0  0  0  0  0  0
    0.0319    0.3550   -2.3301 C   0  0  0  0  0  0  0  0  0  0  0  0
    0.2124   -0.7511   -3.1894 C   0  0  0  0  0  0  0  0  0  0  0  0
    1.3620   -0.8328   -3.9890 C   0  0  0  0  0  0  0  0  0  0  0  0
    2.3473    0.1652   -3.9290 C   0  0  0  0  0  0  0  0  0  0  0  0
    2.1786    1.2562   -3.0627 C   0  0  0  0  0  0  0  0  0  0  0  0
    1.0293    1.3529   -2.2660 C   0  0  0  0  0  0  0  0  0  0  0  0
   -3.8021   -3.5014   -1.2075 H   0  0  0  0  0  0  0  0  0  0  0  0
   -2.9602   -3.7214    0.3577 H   0  0  0  0  0  0  0  0  0  0  0  0
   -4.4462    0.4859   -0.7826 H   0  0  0  0  0  0  0  0  0  0  0  0
   -4.8724   -0.8931   -1.8380 H   0  0  0  0  0  0  0  0  0  0  0  0
   -2.5185   -1.1101   -2.6262 H   0  0  0  0  0  0  0  0  0  0  0  0
   -3.0966    0.5492   -2.8872 H   0  0  0  0  0  0  0  0  0  0  0  0
   -1.4403    2.3513    1.1259 H   0  0  0  0  0  0  0  0  0  0  0  0
   -1.7903    4.8335    1.2347 H   0  0  0  0  0  0  0  0  0  0  0  0
   -2.2403    6.1357   -0.8633 H   0  0  0  0  0  0  0  0  0  0  0  0
   -2.3173    4.9501   -3.0737 H   0  0  0  0  0  0  0  0  0  0  0  0
   -1.9304    2.4944   -3.1891 H   0  0  0  0  0  0  0  0  0  0  0  0
   -0.5074   -1.5828   -3.2147 H   0  0  0  0  0  0  0  0  0  0  0  0
    1.4927   -1.7003   -4.6536 H   0  0  0  0  0  0  0  0  0  0  0  0
    3.2516    0.0876   -4.5513 H   0  0  0  0  0  0  0  0  0  0  0  0
    2.9478    2.0409   -2.9992 H   0  0  0  0  0  0  0  0  0  0  0  0
    0.9103    2.2103   -1.5872 H   0  0  0  0  0  0  0  0  0  0  0  0
  2  9  1  0  0  0  0
  4  5  2  0  0  0  0
  5  3  1  0  0  0  0
  5  6  1  0  0  0  0
  6  1  1  0  0  0  0
  6 22  1  0  0  0  0
  7 23  1  0  0  0  0
  7  1  1  0  0  0  0
  8  7  1  0  0  0  0
  8  2  1  0  0  0  0
  9 10  1  0  0  0  0
 10 11  2  0  0  0  0
 10 27  1  0  0  0  0
 11 28  1  0  0  0  0
 12 29  1  0  0  0  0
 12 11  1  0  0  0  0
 13 12  2  0  0  0  0
 14 13  1  0  0  0  0
 14  9  2  0  0  0  0
 15 20  1  0  0  0  0
 15  2  1  0  0  0  0
 16 15  2  0  0  0  0
 17 18  2  0  0  0  0
 17 16  1  0  0  0  0
 18 19  1  0  0  0  0
 19 35  1  0  0  0  0
 19 20  2  0  0  0  0
 20 36  1  0  0  0  0
 21  6  1  0  0  0  0
 24  7  1  0  0  0  0
 25  8  1  0  0  0  0
 26  8  1  0  0  0  0
 30 13  1  0  0  0  0
 31 14  1  0  0  0  0
 32 16  1  0  0  0  0
 33 17  1  0  0  0  0
 34 18  1  0  0  0  0
M  CHG  1   3  -1
M  END
