1,2
q = 0.0, confidence = 0.998

 34 33  0  0  1  0  0  0  0  0999 V2000
   -1.7730   -0.4295   -0.2734 P   0  0  1  0  0  0  0  0  0  0  0  0
   -1.4985    2.4651   -0.3794 O   0  0  0  0  0  1  0  0  0  0  0  0
   -3.4589   -3.6848    1.1191 O   0  0  0  0  0  0  0  0  0  0  0  0
   -3.6766    2.9739   -0.5981 O   0  0  0  0  0  0  0  0  0  0  0  0
   -4.2402   -1.6119    1.6005 O   0  0  0  0  0  0  0  0  0  0  0  0
   -2.6910    2.1341   -0.2784 C   0  0  1  0  0  3  0  0  0  0  0  0
   -3.2669   -2.4874    1.2245 C   0  0  0  0  0  0  0  0  0  0  0  0
   -3.1332    0.7873    0.1972 C   0  0  0  0  0  0  0  0  0  0  0  0
   -1.9554   -1.7856    0.9981 C   0  0  0  0  0  0  0  0  0  0  0  0
   -3.2706    4.2723   -1.0715 C   0  0  0  0  0  0  0  0  0  0  0  0
   -5.5250   -2.1958    1.8448 C   0  0  0  0  0  0  0  0  0  0  0  0
   -2.3794   -1.1187   -1.9407 C   0  0  0  0  0  0  0  0  0  0  0  0
   -3.6576   -1.9566   -1.7815 C   0  0  0  0  0  0  0  0  0  0  0  0
   -2.6524    0.0889   -2.8571 C   0  0  0  0  0  0  0  0  0  0  0  0
   -1.2526   -1.9776   -2.5340 C   0  0  0  0  0  0  0  0  0  0  0  0
   -3.0854    0.8025    1.3078 H   0  0  0  0  0  0  0  0  0  0  0  0
   -4.1623    0.5380   -0.1175 H   0  0  0  0  0  0  0  0  0  0  0  0
   -1.6620   -1.2294    1.9173 H   0  0  0  0  0  0  0  0  0  0  0  0
   -1.1849   -2.5482    0.7849 H   0  0  0  0  0  0  0  0  0  0  0  0
   -2.6284    4.1714   -1.9685 H   0  0  0  0  0  0  0  0  0  0  0  0
   -4.2047    4.8081   -1.3137 H   0  0  0  0  0  0  0  0  0  0  0  0
   -2.7029    4.8098   -0.2868 H   0  0  0  0  0  0  0  0  0  0  0  0
   -5.4628   -2.9737    2.6316 H   0  0  0  0  0  0  0  0  0  0  0  0
   -6.1808   -1.3684    2.1692 H   0  0  0  0  0  0  0  0  0  0  0  0
   -5.9239   -2.6673    0.9233 H   0  0  0  0  0  0  0  0  0  0  0  0
   -4.0450   -2.2105   -2.7911 H   0  0  0  0  0  0  0  0  0  0  0  0
   -3.4748   -2.9093   -1.2504 H   0  0  0  0  0  0  0  0  0  0  0  0
   -4.4626   -1.4085   -1.2513 H   0  0  0  0  0  0  0  0  0  0  0  0
   -3.5212    0.6862   -2.5130 H   0  0  0  0  0  0  0  0  0  0  0  0
   -1.7609    0.7429   -2.9385 H   0  0  0  0  0  0  0  0  0  0  0  0
   -2.8977   -0.2830   -3.8747 H   0  0  0  0  0  0  0  0  0  0  0  0
   -0.3619   -1.3535   -2.7375 H   0  0  0  0  0  0  0  0  0  0  0  0
   -0.9721   -2.8161   -1.8636 H   0  0  0  0  0  0  0  0  0  0  0  0
   -1.5936   -2.4239   -3.4923 H   0  0  0  0  0  0  0  0  0  0  0  0
  1 12  1  6  0  0  0
  1  8  1  0  0  0  0
  1  9  1  0  0  0  0
  3  7  2  0  0  0  0
  4  6  1  0  0  0  0
  5 11  1  0  0  0  0
  6  2  1  6  0  0  0
  6  8  1  0  0  0  0
  7  5  1  0  0  0  0
  8 16  1  0  0  0  0
  9  7  1  0  0  0  0
  9 18  1  0  0  0  0
 10  4  1  0  0  0  0
 10 22  1  0  0  0  0
 11 24  1  0  0  0  0
 11 23  1  0  0  0  0
 12 13  1  0  0  0  0
 13 28  1  0  0  0  0
 13 27  1  0  0  0  0
 14 29  1  0  0  0  0
 14 12  1  0  0  0  0
 15 12  1  0  0  0  0
 15 33  1  0  0  0  0
 17  8  1  0  0  0  0
 19  9  1  0  0  0  0
 20 10  1  0  0  0  0
 21 10  1  0  0  0  0
 25 11  1  0  0  0  0
 26 13  1  0  0  0  0
 30 14  1  0  0  0  0
 31 14  1  0  0  0  0
 32 15  1  0  0  0  0
 34 15  1  0  0  0  0
M  END
