6,7,23
q = -1.0, confidence = 0.012

 69 70  0  0  0  0  0  0  0  0999 V2000
   -3.4967    3.4412   -0.2591 C   0  0  0  0  0  0  0  0  0  0  0  0
   -4.5105    3.7585    0.0244 H   0  0  0  0  0  0  0  0  0  0  0  0
   -3.0366    2.1595    0.0748 C   0  0  0  0  0  0  0  0  0  0  0  0
   -2.6286    4.2968   -0.9627 C   0  0  0  0  0  0  0  0  0  0  0  0
   -2.9708    5.3091   -1.2261 H   0  0  0  0  0  0  0  0  0  0  0  0
   -1.7479    1.7240   -0.2718 C   0  0  0  0  0  3  0  0  0  0  0  0
    0.9285    1.0418   -0.3615 N   0  0  0  0  0  0  0  0  0  0  0  0
   -0.9058    2.5811   -1.0027 C   0  0  0  0  0  0  0  0  0  0  0  0
    2.5893   -0.8533   -0.0470 C   0  0  0  0  0  0  0  0  0  0  0  0
    2.8689   -0.3999    0.9320 H   0  0  0  0  0  0  0  0  0  0  0  0
    1.8663   -1.6781    0.1474 H   0  0  0  0  0  0  0  0  0  0  0  0
    1.4629    1.8744    0.7613 C   0  0  0  0  0  0  0  0  0  0  0  0
    0.6431    2.5533    1.0603 H   0  0  0  0  0  0  0  0  0  0  0  0
    1.6733    1.2194    1.6245 H   0  0  0  0  0  0  0  0  0  0  0  0
    0.3919    1.9586   -1.4305 C   0  0  0  0  0  0  0  0  0  0  0  0
    1.1638    2.7039   -1.7189 H   0  0  0  0  0  0  0  0  0  0  0  0
    0.1961    1.3124   -2.3128 H   0  0  0  0  0  0  0  0  0  0  0  0
    1.9667    0.1719   -0.9819 C   0  0  0  0  0  0  0  0  0  0  0  0
    2.7850    0.8061   -1.3827 H   0  0  0  0  0  0  0  0  0  0  0  0
    1.4820   -0.3514   -1.8295 H   0  0  0  0  0  0  0  0  0  0  0  0
   -1.3402    3.8768   -1.3399 C   0  0  0  0  0  0  0  0  0  0  0  0
   -0.6817    4.5562   -1.9037 H   0  0  0  0  0  0  0  0  0  0  0  0
   -3.2614   -0.3240    0.7705 P   0  0  0  0  0  0  0  0  0  0  0  0
   -3.8548    1.2686    0.7591 O   0  0  0  0  0  0  0  0  0  0  0  0
   -3.1476   -2.1250    2.9392 C   0  0  0  0  0  0  0  0  0  0  0  0
   -2.9700   -2.9181    2.1878 H   0  0  0  0  0  0  0  0  0  0  0  0
   -3.6850   -2.5846    3.7938 H   0  0  0  0  0  0  0  0  0  0  0  0
   -2.1591   -1.7860    3.3054 H   0  0  0  0  0  0  0  0  0  0  0  0
   -4.3073   -1.1326   -0.5376 C   0  0  0  0  0  0  0  0  0  0  0  0
   -3.8348   -0.7544   -1.4711 H   0  0  0  0  0  0  0  0  0  0  0  0
   -3.9737   -0.9582    2.3824 C   0  0  0  0  0  0  0  0  0  0  0  0
   -4.9586   -1.3608    2.0583 H   0  0  0  0  0  0  0  0  0  0  0  0
   -4.2431    0.1418    3.4162 C   0  0  0  0  0  0  0  0  0  0  0  0
   -3.3068    0.5986    3.7899 H   0  0  0  0  0  0  0  0  0  0  0  0
   -4.7747   -0.2997    4.2845 H   0  0  0  0  0  0  0  0  0  0  0  0
   -4.8676    0.9517    2.9966 H   0  0  0  0  0  0  0  0  0  0  0  0
   -4.1391   -2.6556   -0.5043 C   0  0  0  0  0  0  0  0  0  0  0  0
   -3.0723   -2.9511   -0.5571 H   0  0  0  0  0  0  0  0  0  0  0  0
   -4.6422   -3.0993   -1.3874 H   0  0  0  0  0  0  0  0  0  0  0  0
   -4.6005   -3.1049    0.3997 H   0  0  0  0  0  0  0  0  0  0  0  0
    3.8536    1.8694    0.5197 O   0  0  0  0  0  0  0  0  0  0  0  0
    6.1299    1.4539   -0.0818 C   0  0  0  0  0  0  0  0  0  0  0  0
    5.7246    0.5846   -0.6436 H   0  0  0  0  0  0  0  0  0  0  0  0
    6.9640    1.8954   -0.6836 H   0  0  0  0  0  0  0  0  0  0  0  0
    5.0427    2.4939    0.0757 C   0  0  0  0  0  0  0  0  0  0  0  0
    5.3711    3.2867    0.7923 H   0  0  0  0  0  0  0  0  0  0  0  0
    4.8747    2.9854   -0.9155 H   0  0  0  0  0  0  0  0  0  0  0  0
    2.7174    2.7009    0.4936 C   0  0  0  0  0  0  0  0  0  0  0  0
    2.6515    3.2527   -0.4779 H   0  0  0  0  0  0  0  0  0  0  0  0
    2.7772    3.4871    1.2880 H   0  0  0  0  0  0  0  0  0  0  0  0
    3.7480   -1.3489   -0.6907 O   0  0  0  0  0  0  0  0  0  0  0  0
    6.6279   -1.5434   -0.3150 O   0  0  0  0  0  0  0  0  0  0  0  0
    6.6006    1.0642    1.2002 O   0  0  0  0  0  0  0  0  0  0  0  0
    7.6037    0.0700    1.1762 C   0  0  0  0  0  0  0  0  0  0  0  0
    8.1331    0.1305    2.1511 H   0  0  0  0  0  0  0  0  0  0  0  0
    8.3524    0.2689    0.3698 H   0  0  0  0  0  0  0  0  0  0  0  0
    7.0654   -1.3461    1.0170 C   0  0  0  0  0  0  0  0  0  0  0  0
    7.8653   -2.0847    1.2833 H   0  0  0  0  0  0  0  0  0  0  0  0
    6.2346   -1.4784    1.7493 H   0  0  0  0  0  0  0  0  0  0  0  0
    5.7571   -2.6428   -0.5068 C   0  0  0  0  0  0  0  0  0  0  0  0
    6.1653   -3.5728   -0.0392 H   0  0  0  0  0  0  0  0  0  0  0  0
    5.7100   -2.8070   -1.6031 H   0  0  0  0  0  0  0  0  0  0  0  0
    4.3452   -2.4117    0.0168 C   0  0  0  0  0  0  0  0  0  0  0  0
    3.7571   -3.3581   -0.0940 H   0  0  0  0  0  0  0  0  0  0  0  0
    4.3715   -2.1865    1.1121 H   0  0  0  0  0  0  0  0  0  0  0  0
   -5.7704   -0.6841   -0.4792 C   0  0  0  0  0  0  0  0  0  0  0  0
   -6.2895   -1.0537    0.4303 H   0  0  0  0  0  0  0  0  0  0  0  0
   -6.3124   -1.1006   -1.3531 H   0  0  0  0  0  0  0  0  0  0  0  0
   -5.8647    0.4177   -0.5058 H   0  0  0  0  0  0  0  0  0  0  0  0
  1  2  1  0  0  0  0
  1  3  1  0  0  0  0
  3 24  1  0  0  0  0
  4  1  2  0  0  0  0
  5  4  1  0  0  0  0
  6  3  2  0  0  0  0
  7 12  1  0  0  0  0
  8  6  1  0  0  0  0
  9 11  1  0  0  0  0
  9 10  1  0  0  0  0
 12 13  1  0  0  0  0
 12 14  1  0  0  0  0
 15  8  1  0  0  0  0
 15  7  1  0  0  0  0
 16 15  1  0  0  0  0
 17 15  1  0  0  0  0
 18  7  1  0  0  0  0
 18  9  1  0  0  0  0
 19 18  1  0  0  0  0
 20 18  1  0  0  0  0
 21  8  2  0  0  0  0
 21  4  1  0  0  0  0
 22 21  1  0  0  0  0
 23 31  1  0  0  0  0
 24 23  1  0  0  0  0
 25 28  1  0  0  0  0
 25 27  1  0  0  0  0
 26 25  1  0  0  0  0
 29 37  1  0  0  0  0
 29 66  1  0  0  0  0
 29 23  1  0  0  0  0
 30 29  1  0  0  0  0
 31 25  1  0  0  0  0
 31 33  1  0  0  0  0
 32 31  1  0  0  0  0
 33 34  1  0  0  0  0
 33 35  1  0  0  0  0
 36 33  1  0  0  0  0
 37 40  1  0  0  0  0
 38 37  1  0  0  0  0
 39 37  1  0  0  0  0
 42 45  1  0  0  0  0
 42 53  1  0  0  0  0
 43 42  1  0  0  0  0
 44 42  1  0  0  0  0
 45 41  1  0  0  0  0
 45 46  1  0  0  0  0
 47 45  1  0  0  0  0
 48 41  1  0  0  0  0
 48 12  1  0  0  0  0
 48 50  1  0  0  0  0
 49 48  1  0  0  0  0
 51  9  1  0  0  0  0
 51 63  1  0  0  0  0
 52 57  1  0  0  0  0
 54 53  1  0  0  0  0
 54 55  1  0  0  0  0
 56 54  1  0  0  0  0
 57 54  1  0  0  0  0
 57 58  1  0  0  0  0
 57 59  1  0  0  0  0
 60 52  1  0  0  0  0
 60 61  1  0  0  0  0
 60 63  1  0  0  0  0
 62 60  1  0  0  0  0
 63 65  1  0  0  0  0
 64 63  1  0  0  0  0
 66 67  1  0  0  0  0
 68 66  1  0  0  0  0
 69 66  1  0  0  0  0
M  END
