2,3,4
q = -1.0, confidence = 0.006

 44 45  0  0  1  0  0  0  0  0999 V2000
    4.1315    1.4055    2.2523 Cl  0  0  0  0  0  0  0  0  0  0  0  0
   -0.9956    0.2215    0.5343 P   0  0  0  0  0  0  0  0  0  0  0  0
    3.0113   -0.8467   -0.9177 N   0  0  0  0  0  0  0  0  0  0  0  0
    1.7599    0.6671    1.0459 C   0  0  0  0  0  2  0  0  0  0  0  0
    3.1001    0.5150    1.1184 C   0  0  2  0  0  3  0  0  0  0  0  0
    3.8331   -0.4921    0.2757 C   0  0  0  0  0  0  0  0  0  0  0  0
    4.0053   -1.4200    0.8625 H   0  0  0  0  0  0  0  0  0  0  0  0
    4.8368   -0.1204   -0.0349 H   0  0  0  0  0  0  0  0  0  0  0  0
    3.2576   -2.2337   -1.3523 C   0  0  0  0  0  0  0  0  0  0  0  0
    3.0413   -2.9247   -0.5163 H   0  0  0  0  0  0  0  0  0  0  0  0
    4.3165   -2.3633   -1.6754 H   0  0  0  0  0  0  0  0  0  0  0  0
    2.5689   -2.4710   -2.1849 H   0  0  0  0  0  0  0  0  0  0  0  0
    3.2616    0.0923   -2.0324 C   0  0  0  0  0  0  0  0  0  0  0  0
    3.1098    1.1291   -1.6794 H   0  0  0  0  0  0  0  0  0  0  0  0
    2.5417   -0.1211   -2.8450 H   0  0  0  0  0  0  0  0  0  0  0  0
    4.3037   -0.0209   -2.4128 H   0  0  0  0  0  0  0  0  0  0  0  0
    0.9213    1.6249    1.8578 C   0  0  0  0  0  0  0  0  0  0  0  0
    0.7949    2.5693    1.2807 H   0  0  0  0  0  0  0  0  0  0  0  0
    1.4330    1.9007    2.8050 H   0  0  0  0  0  0  0  0  0  0  0  0
   -0.4592    1.0127    2.1280 C   0  0  0  0  0  0  0  0  0  0  0  0
   -1.1919    1.7388    2.5331 H   0  0  0  0  0  0  0  0  0  0  0  0
   -0.3791    0.1727    2.8489 H   0  0  0  0  0  0  0  0  0  0  0  0
   -1.8250    1.5167   -0.4740 C   0  0  0  0  0  0  0  0  0  0  0  0
   -2.4284    2.6520    0.1021 C   0  0  0  0  0  0  0  0  0  0  0  0
   -2.4008    2.8109    1.1906 H   0  0  0  0  0  0  0  0  0  0  0  0
   -3.0739    3.5944   -0.7134 C   0  0  0  0  0  0  0  0  0  0  0  0
   -3.5380    4.4826   -0.2582 H   0  0  0  0  0  0  0  0  0  0  0  0
   -3.1273    3.4038   -2.1030 C   0  0  0  0  0  0  0  0  0  0  0  0
   -3.6343    4.1443   -2.7403 H   0  0  0  0  0  0  0  0  0  0  0  0
   -2.5306    2.2696   -2.6777 C   0  0  0  0  0  0  0  0  0  0  0  0
   -2.5687    2.1176   -3.7672 H   0  0  0  0  0  0  0  0  0  0  0  0
   -1.8751    1.3277   -1.8719 C   0  0  0  0  0  0  0  0  0  0  0  0
   -1.3926    0.4389   -2.3155 H   0  0  0  0  0  0  0  0  0  0  0  0
   -2.3351   -0.9582    0.9534 C   0  0  0  0  0  0  0  0  0  0  0  0
   -3.2174   -0.6934    2.0218 C   0  0  0  0  0  0  0  0  0  0  0  0
   -3.1040    0.2173    2.6296 H   0  0  0  0  0  0  0  0  0  0  0  0
   -4.2525   -1.5932    2.3138 C   0  0  0  0  0  0  0  0  0  0  0  0
   -4.9371   -1.3854    3.1504 H   0  0  0  0  0  0  0  0  0  0  0  0
   -4.4148   -2.7540    1.5399 C   0  0  0  0  0  0  0  0  0  0  0  0
   -5.2281   -3.4588    1.7713 H   0  0  0  0  0  0  0  0  0  0  0  0
   -3.5396   -3.0138    0.4736 C   0  0  0  0  0  0  0  0  0  0  0  0
   -3.6645   -3.9227   -0.1345 H   0  0  0  0  0  0  0  0  0  0  0  0
   -2.4970   -2.1228    0.1763 C   0  0  0  0  0  0  0  0  0  0  0  0
   -1.8030   -2.3153   -0.6604 H   0  0  0  0  0  0  0  0  0  0  0  0
  2 34  1  0  0  0  0
  2 20  1  0  0  0  0
  3  6  1  0  0  0  0
  4  5  1  0  0  0  0
  4 17  1  0  0  0  0
  5  1  1  1  0  0  0
  6  7  1  0  0  0  0
  6  5  1  0  0  0  0
  8  6  1  0  0  0  0
  9  3  1  0  0  0  0
  9 10  1  0  0  0  0
 11  9  1  0  0  0  0
 12  9  1  0  0  0  0
 13 14  1  0  0  0  0
 13  3  1  0  0  0  0
 15 13  1  0  0  0  0
 16 13  1  0  0  0  0
 17 20  1  0  0  0  0
 17 19  1  0  0  0  0
 18 17  1  0  0  0  0
 20 21  1  0  0  0  0
 20 22  1  0  0  0  0
 23 24  1  0  0  0  0
 23  2  1  0  0  0  0
 24 25  1  0  0  0  0
 26 27  1  0  0  0  0
 26 24  2  0  0  0  0
 28 26  1  0  0  0  0
 29 28  1  0  0  0  0
 30 28  2  0  0  0  0
 30 32  1  0  0  0  0
 31 30  1  0  0  0  0
 32 23  2  0  0  0  0
 33 32  1  0  0  0  0
 34 35  1  0  0  0  0
 35 37  2  0  0  0  0
 35 36  1  0  0  0  0
 37 38  1  0  0  0  0
 39 40  1  0  0  0  0
 39 37  1  0  0  0  0
 41 39  2  0  0  0  0
 42 41  1  0  0  0  0
 43 41  1  0  0  0  0
 43 34  2  0  0  0  0
 44 43  1  0  0  0  0
M  END
