1,3,4
q = -1.0, confidence = 0.022

 63 64  0  0  0  0  0  0  0  0999 V2000
   -2.5076    0.3560    0.5838 P   0  0  0  0  0  0  0  0  0  0  0  0
   -3.3537   -0.5849   -0.5782 O   0  0  0  0  0  0  0  0  0  0  0  0
    1.2871   -0.4280   -0.5255 N   0  0  0  0  0  2  0  0  0  0  0  0
   -1.0871   -0.9849   -1.1401 C   0  0  0  0  0  3  0  0  0  0  0  0
   -2.4486   -1.2051   -1.4148 C   0  0  0  0  0  0  0  0  0  0  0  0
   -2.8547   -2.0027   -2.4940 C   0  0  0  0  0  0  0  0  0  0  0  0
   -3.9260   -2.1534   -2.6920 H   0  0  0  0  0  0  0  0  0  0  0  0
   -1.8697   -2.5972   -3.3165 C   0  0  0  0  0  0  0  0  0  0  0  0
   -2.1897   -3.2250   -4.1614 H   0  0  0  0  0  0  0  0  0  0  0  0
   -0.5042   -2.3945   -3.0773 C   0  0  0  0  0  0  0  0  0  0  0  0
    0.2531   -2.8593   -3.7270 H   0  0  0  0  0  0  0  0  0  0  0  0
   -0.1146   -1.5809   -1.9867 C   0  0  0  0  0  0  0  0  0  0  0  0
   -3.3282   -0.2101    2.1436 C   0  0  0  0  0  0  0  0  0  0  0  0
   -2.8538    0.4266    2.9226 H   0  0  0  0  0  0  0  0  0  0  0  0
   -2.9391   -1.6726    2.3968 C   0  0  0  0  0  0  0  0  0  0  0  0
   -3.3568   -2.0131    3.3659 H   0  0  0  0  0  0  0  0  0  0  0  0
   -1.8391   -1.7945    2.4304 H   0  0  0  0  0  0  0  0  0  0  0  0
   -3.3386   -2.3319    1.5998 H   0  0  0  0  0  0  0  0  0  0  0  0
   -4.8463    0.0015    2.1196 C   0  0  0  0  0  0  0  0  0  0  0  0
   -5.2935   -0.3943    3.0546 H   0  0  0  0  0  0  0  0  0  0  0  0
   -5.3057   -0.5401    1.2683 H   0  0  0  0  0  0  0  0  0  0  0  0
   -5.1273    1.0705    2.0446 H   0  0  0  0  0  0  0  0  0  0  0  0
   -3.1428    2.0500    0.1688 C   0  0  0  0  0  0  0  0  0  0  0  0
   -4.2405    1.9042    0.0605 H   0  0  0  0  0  0  0  0  0  0  0  0
   -2.5594    2.4857   -1.1813 C   0  0  0  0  0  0  0  0  0  0  0  0
   -3.0064    3.4525   -1.4912 H   0  0  0  0  0  0  0  0  0  0  0  0
   -2.7612    1.7424   -1.9772 H   0  0  0  0  0  0  0  0  0  0  0  0
   -1.4606    2.6199   -1.1106 H   0  0  0  0  0  0  0  0  0  0  0  0
   -2.8517    3.0553    1.2877 C   0  0  0  0  0  0  0  0  0  0  0  0
   -3.2262    4.0573    0.9938 H   0  0  0  0  0  0  0  0  0  0  0  0
   -1.7630    3.1360    1.4782 H   0  0  0  0  0  0  0  0  0  0  0  0
   -3.3396    2.7806    2.2437 H   0  0  0  0  0  0  0  0  0  0  0  0
    1.2184   -1.2127   -1.5780 C   0  0  0  0  0  3  0  0  0  0  0  0
    2.1389   -1.5316   -2.1025 H   0  0  0  0  0  0  0  0  0  0  0  0
    2.5400    0.0563   -0.0500 C   0  0  0  0  0  0  0  0  0  0  0  0
    3.3045   -0.7345    0.8410 C   0  0  0  0  0  0  0  0  0  0  0  0
    4.5374   -0.2166    1.2798 C   0  0  0  0  0  0  0  0  0  0  0  0
    5.1587   -0.8135    1.9648 H   0  0  0  0  0  0  0  0  0  0  0  0
    4.9766    1.0495    0.8741 C   0  0  0  0  0  0  0  0  0  0  0  0
    5.9442    1.4355    1.2292 H   0  0  0  0  0  0  0  0  0  0  0  0
    4.1739    1.8364    0.0364 C   0  0  0  0  0  0  0  0  0  0  0  0
    4.5127    2.8423   -0.2542 H   0  0  0  0  0  0  0  0  0  0  0  0
    2.9364    1.3628   -0.4309 C   0  0  0  0  0  0  0  0  0  0  0  0
    2.8029   -2.0909    1.3186 C   0  0  0  0  0  0  0  0  0  0  0  0
    1.7334   -2.1591    1.0319 H   0  0  0  0  0  0  0  0  0  0  0  0
    2.8619   -2.2179    2.8485 C   0  0  0  0  0  0  0  0  0  0  0  0
    2.3129   -1.3854    3.3310 H   0  0  0  0  0  0  0  0  0  0  0  0
    3.9054   -2.2078    3.2256 H   0  0  0  0  0  0  0  0  0  0  0  0
    2.4036   -3.1741    3.1744 H   0  0  0  0  0  0  0  0  0  0  0  0
    3.5513   -3.2401    0.6216 C   0  0  0  0  0  0  0  0  0  0  0  0
    3.4493   -3.1829   -0.4813 H   0  0  0  0  0  0  0  0  0  0  0  0
    3.1605   -4.2250    0.9507 H   0  0  0  0  0  0  0  0  0  0  0  0
    4.6359   -3.2091    0.8562 H   0  0  0  0  0  0  0  0  0  0  0  0
    2.0398    2.2040   -1.3297 C   0  0  0  0  0  0  0  0  0  0  0  0
    1.0293    1.7446   -1.2793 H   0  0  0  0  0  0  0  0  0  0  0  0
    1.8977    3.6495   -0.8350 C   0  0  0  0  0  0  0  0  0  0  0  0
    1.5545    3.6732    0.2186 H   0  0  0  0  0  0  0  0  0  0  0  0
    1.1575    4.1975   -1.4540 H   0  0  0  0  0  0  0  0  0  0  0  0
    2.8537    4.2095   -0.8967 H   0  0  0  0  0  0  0  0  0  0  0  0
    2.5058    2.1393   -2.7939 C   0  0  0  0  0  0  0  0  0  0  0  0
    2.5354    1.0940   -3.1627 H   0  0  0  0  0  0  0  0  0  0  0  0
    3.5267    2.5610   -2.9046 H   0  0  0  0  0  0  0  0  0  0  0  0
    1.8239    2.7148   -3.4537 H   0  0  0  0  0  0  0  0  0  0  0  0
  1 13  1  0  0  0  0
  2  1  1  0  0  0  0
  3 35  1  0  0  0  0
  5  4  1  0  0  0  0
  5  2  1  0  0  0  0
  6  5  2  0  0  0  0
  7  6  1  0  0  0  0
  8 10  2  0  0  0  0
  8  6  1  0  0  0  0
  9  8  1  0  0  0  0
 10 12  1  0  0  0  0
 11 10  1  0  0  0  0
 12 33  1  0  0  0  0
 12  4  2  0  0  0  0
 13 15  1  0  0  0  0
 13 14  1  0  0  0  0
 15 17  1  0  0  0  0
 15 16  1  0  0  0  0
 18 15  1  0  0  0  0
 19 13  1  0  0  0  0
 19 20  1  0  0  0  0
 21 19  1  0  0  0  0
 22 19  1  0  0  0  0
 23  1  1  0  0  0  0
 23 29  1  0  0  0  0
 24 23  1  0  0  0  0
 25 28  1  0  0  0  0
 25 23  1  0  0  0  0
 26 25  1  0  0  0  0
 27 25  1  0  0  0  0
 29 31  1  0  0  0  0
 29 32  1  0  0  0  0
 30 29  1  0  0  0  0
 33  3  1  0  0  0  0
 34 33  1  0  0  0  0
 35 36  1  0  0  0  0
 36 37  2  0  0  0  0
 36 44  1  0  0  0  0
 37 38  1  0  0  0  0
 39 40  1  0  0  0  0
 39 37  1  0  0  0  0
 41 39  2  0  0  0  0
 42 41  1  0  0  0  0
 43 35  2  0  0  0  0
 43 41  1  0  0  0  0
 44 46  1  0  0  0  0
 45 44  1  0  0  0  0
 46 49  1  0  0  0  0
 46 48  1  0  0  0  0
 46 47  1  0  0  0  0
 50 53  1  0  0  0  0
 50 52  1  0  0  0  0
 50 44  1  0  0  0  0
 51 50  1  0  0  0  0
 54 55  1  0  0  0  0
 54 56  1  0  0  0  0
 54 43  1  0  0  0  0
 56 57  1  0  0  0  0
 58 56  1  0  0  0  0
 59 56  1  0  0  0  0
 60 54  1  0  0  0  0
 61 60  1  0  0  0  0
 62 60  1  0  0  0  0
 63 60  1  0  0  0  0
M  END
