1,28,43
q = -1.0, confidence = 0.006

 63 63  0  0  0  0  0  0  0  0999 V2000
   -0.5062    1.8909    0.0358 P   0  0  0  0  0  0  0  0  0  0  0  0
    0.4383    3.2628   -0.9054 C   0  0  0  0  0  0  0  0  0  0  0  0
    0.7196    2.7126   -2.3152 C   0  0  0  0  0  0  0  0  0  0  0  0
    1.1966    3.5128   -2.9198 H   0  0  0  0  0  0  0  0  0  0  0  0
   -0.2038    2.4040   -2.8453 H   0  0  0  0  0  0  0  0  0  0  0  0
    1.4123    1.8536   -2.2839 H   0  0  0  0  0  0  0  0  0  0  0  0
   -0.4031    4.5469   -1.0341 C   0  0  0  0  0  0  0  0  0  0  0  0
   -0.6766    4.9859   -0.0581 H   0  0  0  0  0  0  0  0  0  0  0  0
   -1.3315    4.3905   -1.6174 H   0  0  0  0  0  0  0  0  0  0  0  0
    0.1988    5.3040   -1.5804 H   0  0  0  0  0  0  0  0  0  0  0  0
    1.7794    3.5708   -0.2204 C   0  0  0  0  0  0  0  0  0  0  0  0
    2.3763    4.2235   -0.8922 H   0  0  0  0  0  0  0  0  0  0  0  0
    2.3796    2.6628   -0.0108 H   0  0  0  0  0  0  0  0  0  0  0  0
    1.6432    4.1240    0.7290 H   0  0  0  0  0  0  0  0  0  0  0  0
   -0.5832    2.2757    1.9159 C   0  0  0  0  0  0  0  0  0  0  0  0
   -1.6380    1.3206    2.5132 C   0  0  0  0  0  0  0  0  0  0  0  0
   -1.6978    1.4976    3.6078 H   0  0  0  0  0  0  0  0  0  0  0  0
   -1.3710    0.2546    2.3639 H   0  0  0  0  0  0  0  0  0  0  0  0
   -2.6492    1.4657    2.0857 H   0  0  0  0  0  0  0  0  0  0  0  0
    0.7819    1.9606    2.5566 C   0  0  0  0  0  0  0  0  0  0  0  0
    1.5615    2.6959    2.2929 H   0  0  0  0  0  0  0  0  0  0  0  0
    1.1730    0.9741    2.2431 H   0  0  0  0  0  0  0  0  0  0  0  0
    0.6720    1.9615    3.6616 H   0  0  0  0  0  0  0  0  0  0  0  0
   -0.9946    3.7219    2.2284 C   0  0  0  0  0  0  0  0  0  0  0  0
   -1.9614    4.0010    1.7624 H   0  0  0  0  0  0  0  0  0  0  0  0
   -0.2268    4.4536    1.9141 H   0  0  0  0  0  0  0  0  0  0  0  0
   -1.1174    3.8293    3.3273 H   0  0  0  0  0  0  0  0  0  0  0  0
   -0.4689   -2.5304    0.2857 N   0  0  0  0  0  0  0  0  0  0  0  0
   -0.7337   -2.6833    1.7503 C   0  0  0  0  0  0  0  0  0  0  0  0
   -0.9885   -3.7501    1.9448 H   0  0  0  0  0  0  0  0  0  0  0  0
   -1.6608   -2.1079    1.9531 H   0  0  0  0  0  0  0  0  0  0  0  0
    0.3822   -2.2393    2.6859 C   0  0  0  0  0  0  0  0  0  0  0  0
    1.3426   -2.7512    2.4857 H   0  0  0  0  0  0  0  0  0  0  0  0
    0.0810   -2.4653    3.7281 H   0  0  0  0  0  0  0  0  0  0  0  0
    0.5871   -1.1546    2.6163 H   0  0  0  0  0  0  0  0  0  0  0  0
    0.6969   -3.3362   -0.1797 C   0  0  0  0  0  0  0  0  0  0  0  0
    1.5977   -2.8965    0.2866 H   0  0  0  0  0  0  0  0  0  0  0  0
    0.7940   -3.1367   -1.2653 H   0  0  0  0  0  0  0  0  0  0  0  0
    0.6195   -4.8405    0.0734 C   0  0  0  0  0  0  0  0  0  0  0  0
    0.6283   -5.0909    1.1530 H   0  0  0  0  0  0  0  0  0  0  0  0
    1.5090   -5.3241   -0.3764 H   0  0  0  0  0  0  0  0  0  0  0  0
   -0.2763   -5.3087   -0.3830 H   0  0  0  0  0  0  0  0  0  0  0  0
   -2.1240   -0.4255   -0.3513 C   0  0  0  0  0  3  0  0  0  0  0  0
   -1.7276   -2.8798   -0.4390 C   0  0  0  0  0  0  0  0  0  0  0  0
   -2.1671   -3.8109   -0.0188 H   0  0  0  0  0  0  0  0  0  0  0  0
   -1.4488   -3.1170   -1.4892 H   0  0  0  0  0  0  0  0  0  0  0  0
   -2.6948   -1.7223   -0.4183 C   0  0  0  0  0  0  0  0  0  0  0  0
   -4.0929   -1.8841   -0.5425 C   0  0  0  0  0  0  0  0  0  0  0  0
   -4.7226   -3.2544   -0.6151 C   0  0  0  0  0  0  0  0  0  0  0  0
   -5.8258   -3.1869   -0.6780 H   0  0  0  0  0  0  0  0  0  0  0  0
   -4.4751   -3.8714    0.2751 H   0  0  0  0  0  0  0  0  0  0  0  0
   -4.3726   -3.8242   -1.5022 H   0  0  0  0  0  0  0  0  0  0  0  0
   -4.8922   -0.7263   -0.6210 C   0  0  0  0  0  0  0  0  0  0  0  0
   -5.9841   -0.8427   -0.7158 H   0  0  0  0  0  0  0  0  0  0  0  0
   -4.3488    0.5728   -0.6128 C   0  0  0  0  0  0  0  0  0  0  0  0
   -5.2425    1.7803   -0.7491 C   0  0  0  0  0  0  0  0  0  0  0  0
   -4.9763    2.3888   -1.6396 H   0  0  0  0  0  0  0  0  0  0  0  0
   -5.1565    2.4572    0.1283 H   0  0  0  0  0  0  0  0  0  0  0  0
   -6.3064    1.4897   -0.8450 H   0  0  0  0  0  0  0  0  0  0  0  0
   -2.9463    0.7203   -0.4894 C   0  0  0  0  0  0  0  0  0  0  0  0
   -2.2717    2.0700   -0.5505 C   0  0  0  0  0  0  0  0  0  0  0  0
   -2.8014    2.8629    0.0183 H   0  0  0  0  0  0  0  0  0  0  0  0
   -2.2333    2.4320   -1.6019 H   0  0  0  0  0  0  0  0  0  0  0  0
  1 15  1  0  0  0  0
  2 11  1  0  0  0  0
  2  1  1  0  0  0  0
  3  6  1  0  0  0  0
  3  2  1  0  0  0  0
  4  3  1  0  0  0  0
  5  3  1  0  0  0  0
  7  2  1  0  0  0  0
  7  8  1  0  0  0  0
  9  7  1  0  0  0  0
 10  7  1  0  0  0  0
 11 13  1  0  0  0  0
 11 14  1  0  0  0  0
 12 11  1  0  0  0  0
 15 24  1  0  0  0  0
 15 16  1  0  0  0  0
 15 20  1  0  0  0  0
 16 17  1  0  0  0  0
 18 16  1  0  0  0  0
 19 16  1  0  0  0  0
 20 23  1  0  0  0  0
 21 20  1  0  0  0  0
 22 20  1  0  0  0  0
 24 27  1  0  0  0  0
 25 24  1  0  0  0  0
 26 24  1  0  0  0  0
 28 29  1  0  0  0  0
 29 30  1  0  0  0  0
 29 31  1  0  0  0  0
 29 32  1  0  0  0  0
 32 34  1  0  0  0  0
 33 32  1  0  0  0  0
 35 32  1  0  0  0  0
 36 39  1  0  0  0  0
 36 28  1  0  0  0  0
 36 37  1  0  0  0  0
 38 36  1  0  0  0  0
 39 40  1  0  0  0  0
 41 39  1  0  0  0  0
 42 39  1  0  0  0  0
 44 47  1  0  0  0  0
 44 45  1  0  0  0  0
 44 28  1  0  0  0  0
 46 44  1  0  0  0  0
 47 43  1  0  0  0  0
 48 47  2  0  0  0  0
 49 48  1  0  0  0  0
 49 51  1  0  0  0  0
 50 49  1  0  0  0  0
 52 49  1  0  0  0  0
 53 55  2  0  0  0  0
 53 48  1  0  0  0  0
 54 53  1  0  0  0  0
 55 60  1  0  0  0  0
 56 55  1  0  0  0  0
 56 58  1  0  0  0  0
 57 56  1  0  0  0  0
 59 56  1  0  0  0  0
 60 43  2  0  0  0  0
 61 60  1  0  0  0  0
 61 62  1  0  0  0  0
 61  1  1  0  0  0  0
 63 61  1  0  0  0  0
M  END
