1,2,30
q = -1.0, confidence = 0.04

 52 55  0  0  1  0  0  0  0  0999 V2000
    1.3353   -0.3114   -0.0382 P   0  0  0  0  0  0  0  0  0  0  0  0
   -1.3124   -1.8497   -0.3872 N   0  0  0  0  0  2  0  0  0  0  0  0
    1.6900   -1.5236   -1.3659 C   0  0  0  0  0  0  0  0  0  0  0  0
    2.9074   -1.4937   -2.0657 C   0  0  0  0  0  0  0  0  0  0  0  0
    3.6295   -0.6901   -1.8557 H   0  0  0  0  0  0  0  0  0  0  0  0
    3.2126   -2.4708   -3.0287 C   0  0  0  0  0  0  0  0  0  0  0  0
    4.1690   -2.4239   -3.5706 H   0  0  0  0  0  0  0  0  0  0  0  0
    2.3043   -3.5075   -3.2843 C   0  0  0  0  0  0  0  0  0  0  0  0
    2.5398   -4.2843   -4.0262 H   0  0  0  0  0  0  0  0  0  0  0  0
    1.0903   -3.5505   -2.5894 C   0  0  0  0  0  0  0  0  0  0  0  0
    0.3766   -4.3639   -2.7928 H   0  0  0  0  0  0  0  0  0  0  0  0
    0.7430   -2.5558   -1.6424 C   0  0  0  0  0  0  0  0  0  0  0  0
   -0.5843   -2.7078   -1.0409 C   0  0  0  0  0  3  0  0  0  0  0  0
   -1.0462   -3.7005   -1.2091 H   0  0  0  0  0  0  0  0  0  0  0  0
   -2.6456   -2.2987    0.1115 C   0  0  1  0  0  0  0  0  0  0  0  0
   -2.9773   -3.1560   -0.5141 H   0  0  0  0  0  0  0  0  0  0  0  0
   -2.5041   -2.7645    1.5688 C   0  0  0  0  0  0  0  0  0  0  0  0
   -2.1458   -1.9293    2.2025 H   0  0  0  0  0  0  0  0  0  0  0  0
   -1.7957   -3.6128    1.6549 H   0  0  0  0  0  0  0  0  0  0  0  0
   -3.4926   -3.0858    1.9498 H   0  0  0  0  0  0  0  0  0  0  0  0
   -3.5962   -1.1302   -0.0238 C   0  0  0  0  0  0  0  0  0  0  0  0
   -4.9889   -1.3087   -0.0542 C   0  0  0  0  0  0  0  0  0  0  0  0
   -5.4195   -2.3230   -0.0425 H   0  0  0  0  0  0  0  0  0  0  0  0
   -5.8344   -0.1893   -0.0950 C   0  0  0  0  0  0  0  0  0  0  0  0
   -6.9256   -0.3258   -0.1198 H   0  0  0  0  0  0  0  0  0  0  0  0
   -5.2837    1.1016   -0.0987 C   0  0  0  0  0  0  0  0  0  0  0  0
   -5.9456    1.9810   -0.1200 H   0  0  0  0  0  0  0  0  0  0  0  0
   -3.8894    1.2779   -0.0753 C   0  0  0  0  0  0  0  0  0  0  0  0
   -3.4898    2.3040   -0.0720 H   0  0  0  0  0  0  0  0  0  0  0  0
   -3.0246    0.1669   -0.0480 C   0  0  0  0  0  3  0  0  0  0  0  0
    2.4392    1.1175   -0.3184 C   0  0  0  0  0  0  0  0  0  0  0  0
    2.2356    1.8896   -1.4847 C   0  0  0  0  0  0  0  0  0  0  0  0
    1.4996    1.5647   -2.2376 H   0  0  0  0  0  0  0  0  0  0  0  0
    2.9676    3.0671   -1.6827 C   0  0  0  0  0  0  0  0  0  0  0  0
    2.8116    3.6605   -2.5962 H   0  0  0  0  0  0  0  0  0  0  0  0
    3.8960    3.4913   -0.7156 C   0  0  0  0  0  0  0  0  0  0  0  0
    4.4676    4.4183   -0.8717 H   0  0  0  0  0  0  0  0  0  0  0  0
    4.0964    2.7297    0.4455 C   0  0  0  0  0  0  0  0  0  0  0  0
    4.8260    3.0569    1.2014 H   0  0  0  0  0  0  0  0  0  0  0  0
    3.3714    1.5442    0.6485 C   0  0  0  0  0  0  0  0  0  0  0  0
    3.5303    0.9506    1.5610 H   0  0  0  0  0  0  0  0  0  0  0  0
    1.9278   -1.1371    1.4873 C   0  0  0  0  0  0  0  0  0  0  0  0
    1.1324   -1.0559    2.6493 C   0  0  0  0  0  0  0  0  0  0  0  0
    0.1640   -0.5311    2.6067 H   0  0  0  0  0  0  0  0  0  0  0  0
    1.5648   -1.6584    3.8407 C   0  0  0  0  0  0  0  0  0  0  0  0
    0.9408   -1.5944    4.7445 H   0  0  0  0  0  0  0  0  0  0  0  0
    2.7872   -2.3473    3.8745 C   0  0  0  0  0  0  0  0  0  0  0  0
    3.1245   -2.8230    4.8075 H   0  0  0  0  0  0  0  0  0  0  0  0
    3.5785   -2.4374    2.7163 C   0  0  0  0  0  0  0  0  0  0  0  0
    4.5332   -2.9837    2.7421 H   0  0  0  0  0  0  0  0  0  0  0  0
    3.1523   -1.8370    1.5234 C   0  0  0  0  0  0  0  0  0  0  0  0
    3.7717   -1.9187    0.6171 H   0  0  0  0  0  0  0  0  0  0  0  0
  1 42  1  0  0  0  0
  2 15  1  0  0  0  0
  3  1  1  0  0  0  0
  4  5  1  0  0  0  0
  4  3  2  0  0  0  0
  6  4  1  0  0  0  0
  7  6  1  0  0  0  0
  8  6  2  0  0  0  0
  8 10  1  0  0  0  0
  9  8  1  0  0  0  0
 10 12  2  0  0  0  0
 11 10  1  0  0  0  0
 12  3  1  0  0  0  0
 12 13  1  0  0  0  0
 13  2  1  0  0  0  0
 14 13  1  0  0  0  0
 15 16  1  6  0  0  0
 15 17  1  0  0  0  0
 17 19  1  0  0  0  0
 17 20  1  0  0  0  0
 17 18  1  0  0  0  0
 21 15  1  0  0  0  0
 22 23  1  0  0  0  0
 22 21  2  0  0  0  0
 24 22  1  0  0  0  0
 25 24  1  0  0  0  0
 26 24  2  0  0  0  0
 26 28  1  0  0  0  0
 27 26  1  0  0  0  0
 28 29  1  0  0  0  0
 28 30  2  0  0  0  0
 30 21  1  0  0  0  0
 31  1  1  0  0  0  0
 31 40  1  0  0  0  0
 32 31  2  0  0  0  0
 33 32  1  0  0  0  0
 34 32  1  0  0  0  0
 34 36  2  0  0  0  0
 35 34  1  0  0  0  0
 36 38  1  0  0  0  0
 37 36  1  0  0  0  0
 38 40  2  0  0  0  0
 38 39  1  0  0  0  0
 40 41  1  0  0  0  0
 42 51  2  0  0  0  0
 42 43  1  0  0  0  0
 43 45  2  0  0  0  0
 44 43  1  0  0  0  0
 45 47  1  0  0  0  0
 45 46  1  0  0  0  0
 47 48  1  0  0  0  0
 49 50  1  0  0  0  0
 49 47  2  0  0  0  0
 51 49  1  0  0  0  0
 52 51  1  0  0  0  0
M  END
