1,60,61
q = -1.0, confidence = 0.008

 61 64  0  0  1  0  0  0  0  0999 V2000
   -1.7851    1.4767   -0.0248 C   0  0  0  0  0  3  0  0  0  0  0  0
   -0.9261    2.6161    0.0675 C   0  0  0  0  0  0  0  0  0  0  0  0
   -1.5003    3.9129    0.1909 C   0  0  0  0  0  0  0  0  0  0  0  0
   -0.8237    4.7805    0.2537 H   0  0  0  0  0  0  0  0  0  0  0  0
   -2.8803    4.1101    0.2334 C   0  0  0  0  0  0  0  0  0  0  0  0
   -3.2964    5.1247    0.3199 H   0  0  0  0  0  0  0  0  0  0  0  0
   -3.7304    2.9936    0.1630 C   0  0  0  0  0  0  0  0  0  0  0  0
   -4.8241    3.1272    0.1997 H   0  0  0  0  0  0  0  0  0  0  0  0
   -3.1900    1.7047    0.0471 C   0  0  0  0  0  0  0  0  0  0  0  0
   -4.0822    0.4803    0.0846 C   0  0  2  0  0  0  0  0  0  0  0  0
   -5.0919    0.7221   -0.3254 H   0  0  0  0  0  0  0  0  0  0  0  0
   -4.2376    0.0021    1.5333 C   0  0  0  0  0  0  0  0  0  0  0  0
   -4.9851   -0.8069    1.6434 H   0  0  0  0  0  0  0  0  0  0  0  0
   -4.5669    0.8572    2.1538 H   0  0  0  0  0  0  0  0  0  0  0  0
   -3.2575   -0.3442    1.9219 H   0  0  0  0  0  0  0  0  0  0  0  0
   -3.6083   -0.1764   -2.2249 C   0  0  0  0  0  0  0  0  0  0  0  0
   -4.6819   -0.1940   -2.5223 H   0  0  0  0  0  0  0  0  0  0  0  0
   -3.0410   -0.8875   -2.8529 H   0  0  0  0  0  0  0  0  0  0  0  0
   -3.2037    0.8406   -2.3739 H   0  0  0  0  0  0  0  0  0  0  0  0
   -4.0521   -1.9093   -0.6161 C   0  0  0  0  0  0  0  0  0  0  0  0
   -5.1458   -1.8818   -0.8253 H   0  0  0  0  0  0  0  0  0  0  0  0
   -3.8718   -2.2698    0.4098 H   0  0  0  0  0  0  0  0  0  0  0  0
   -3.5431   -2.6132   -1.2983 H   0  0  0  0  0  0  0  0  0  0  0  0
    0.5310    2.5789    0.0339 C   0  0  0  0  0  0  0  0  0  0  0  0
    0.9892    3.5843    0.0080 H   0  0  0  0  0  0  0  0  0  0  0  0
    1.4298    1.5428    0.0538 C   0  0  0  0  0  0  0  0  0  0  0  0
    2.8825    1.8032   -0.1105 C   0  0  0  0  0  0  0  0  0  0  0  0
    3.8711    1.0729    0.5912 C   0  0  0  0  0  0  0  0  0  0  0  0
    3.5712    0.2889    1.2992 H   0  0  0  0  0  0  0  0  0  0  0  0
    5.2334    1.3461    0.4130 C   0  0  0  0  0  0  0  0  0  0  0  0
    5.9792    0.7646    0.9761 H   0  0  0  0  0  0  0  0  0  0  0  0
    5.6477    2.3509   -0.4749 C   0  0  0  0  0  0  0  0  0  0  0  0
    6.7187    2.5594   -0.6182 H   0  0  0  0  0  0  0  0  0  0  0  0
    4.6818    3.0774   -1.1893 C   0  0  0  0  0  0  0  0  0  0  0  0
    4.9920    3.8550   -1.9041 H   0  0  0  0  0  0  0  0  0  0  0  0
    3.3196    2.8022   -1.0146 C   0  0  0  0  0  0  0  0  0  0  0  0
    2.5726    3.3475   -1.6109 H   0  0  0  0  0  0  0  0  0  0  0  0
    1.1034   -0.7305    1.9137 C   0  0  0  0  0  0  0  0  0  0  0  0
    1.4931    0.1714    2.9226 C   0  0  0  0  0  0  0  0  0  0  0  0
    1.6901    1.2244    2.6705 H   0  0  0  0  0  0  0  0  0  0  0  0
    1.6214   -0.2735    4.2478 C   0  0  0  0  0  0  0  0  0  0  0  0
    1.9258    0.4351    5.0330 H   0  0  0  0  0  0  0  0  0  0  0  0
    1.3617   -1.6146    4.5694 C   0  0  0  0  0  0  0  0  0  0  0  0
    1.4659   -1.9617    5.6088 H   0  0  0  0  0  0  0  0  0  0  0  0
    0.9555   -2.5103    3.5654 C   0  0  0  0  0  0  0  0  0  0  0  0
    0.7340   -3.5587    3.8174 H   0  0  0  0  0  0  0  0  0  0  0  0
    0.8134   -2.0736    2.2410 C   0  0  0  0  0  0  0  0  0  0  0  0
    0.4500   -2.7560    1.4538 H   0  0  0  0  0  0  0  0  0  0  0  0
    1.9927   -1.1282   -0.8796 C   0  0  0  0  0  0  0  0  0  0  0  0
    1.8988   -0.9080   -2.2680 C   0  0  0  0  0  0  0  0  0  0  0  0
    1.1233   -0.2304   -2.6580 H   0  0  0  0  0  0  0  0  0  0  0  0
    2.7768   -1.5606   -3.1419 C   0  0  0  0  0  0  0  0  0  0  0  0
    2.7000   -1.3852   -4.2256 H   0  0  0  0  0  0  0  0  0  0  0  0
    3.7441   -2.4460   -2.6372 C   0  0  0  0  0  0  0  0  0  0  0  0
    4.4299   -2.9634   -3.3252 H   0  0  0  0  0  0  0  0  0  0  0  0
    3.8298   -2.6746   -1.2559 C   0  0  0  0  0  0  0  0  0  0  0  0
    4.5820   -3.3719   -0.8568 H   0  0  0  0  0  0  0  0  0  0  0  0
    2.9582   -2.0158   -0.3751 C   0  0  0  0  0  0  0  0  0  0  0  0
    3.0303   -2.1976    0.7072 H   0  0  0  0  0  0  0  0  0  0  0  0
   -3.4628   -0.5686   -0.8030 N   0  0  0  0  0  0  0  0  0  0  0  0
    0.8351   -0.1797    0.1809 P   0  0  0  0  0  0  0  0  0  0  0  0
  1  9  2  0  0  0  0
  1  2  1  0  0  0  0
  2  3  2  0  0  0  0
  3  5  1  0  0  0  0
  3  4  1  0  0  0  0
  5  6  1  0  0  0  0
  7  8  1  0  0  0  0
  7  5  2  0  0  0  0
  9 10  1  0  0  0  0
  9  7  1  0  0  0  0
 10 11  1  6  0  0  0
 10 12  1  0  0  0  0
 12 13  1  0  0  0  0
 12 15  1  0  0  0  0
 12 14  1  0  0  0  0
 16 60  1  0  0  0  0
 17 16  1  0  0  0  0
 18 16  1  0  0  0  0
 19 16  1  0  0  0  0
 20 22  1  0  0  0  0
 21 20  1  0  0  0  0
 23 20  1  0  0  0  0
 24 26  2  0  0  0  0
 24  2  1  0  0  0  0
 25 24  1  0  0  0  0
 26 61  1  0  0  0  0
 27 26  1  0  0  0  0
 27 28  1  0  0  0  0
 28 29  1  0  0  0  0
 30 28  2  0  0  0  0
 30 31  1  0  0  0  0
 32 30  1  0  0  0  0
 33 32  1  0  0  0  0
 34 36  1  0  0  0  0
 34 32  2  0  0  0  0
 35 34  1  0  0  0  0
 36 27  2  0  0  0  0
 37 36  1  0  0  0  0
 38 47  2  0  0  0  0
 38 39  1  0  0  0  0
 39 41  2  0  0  0  0
 40 39  1  0  0  0  0
 41 43  1  0  0  0  0
 41 42  1  0  0  0  0
 43 44  1  0  0  0  0
 45 46  1  0  0  0  0
 45 43  2  0  0  0  0
 47 45  1  0  0  0  0
 48 47  1  0  0  0  0
 49 58  1  0  0  0  0
 49 61  1  0  0  0  0
 50 49  2  0  0  0  0
 51 50  1  0  0  0  0
 52 54  2  0  0  0  0
 52 50  1  0  0  0  0
 53 52  1  0  0  0  0
 54 56  1  0  0  0  0
 55 54  1  0  0  0  0
 56 57  1  0  0  0  0
 56 58  2  0  0  0  0
 58 59  1  0  0  0  0
 60 20  1  0  0  0  0
 60 10  1  0  0  0  0
 61 38  1  0  0  0  0
M  END
