1,2,17
 OpenBabel05122313063D

 36 36  0  0  1  0  0  0  0  0999 V2000
    1.3200    0.5699   -0.0275 P   0  0  0  0  0  0  0  0  0  0  0  0
   -1.4768    0.7592   -0.0583 N   0  0  0  0  0  2  0  0  0  0  0  0
   -3.1674   -0.7640   -0.0920 N   0  0  0  0  0  0  0  0  0  0  0  0
    0.4136    2.0780   -0.0466 N   0  0  0  0  0  0  0  0  0  0  0  0
   -0.9626    2.0144   -0.0508 C   0  0  1  0  0  3  0  0  0  0  0  0
   -1.8062    3.1458   -0.0519 C   0  0  0  0  0  0  0  0  0  0  0  0
   -1.3785    4.1572   -0.0437 H   0  0  0  0  0  0  0  0  0  0  0  0
    2.4087    0.7797   -1.5438 C   0  0  0  0  0  0  0  0  0  0  0  0
    1.6495    0.7479   -2.3557 H   0  0  0  0  0  0  0  0  0  0  0  0
   -3.7246    1.6398   -0.0810 C   0  0  0  0  0  0  0  0  0  0  0  0
   -4.8074    1.4594   -0.0950 H   0  0  0  0  0  0  0  0  0  0  0  0
   -2.8202    0.5568   -0.0769 C   0  0  0  0  0  0  0  0  0  0  0  0
   -3.1915    2.9337   -0.0667 C   0  0  0  0  0  0  0  0  0  0  0  0
   -3.8704    3.7997   -0.0683 H   0  0  0  0  0  0  0  0  0  0  0  0
    2.4938    0.7759    1.4280 C   0  0  0  0  0  0  0  0  0  0  0  0
    3.3422    1.3972    1.0647 H   0  0  0  0  0  0  0  0  0  0  0  0
   -2.1603   -1.7883   -0.0956 C   0  0  0  0  0  3  0  0  0  0  0  0
    3.3497   -0.4187   -1.7215 C   0  0  0  0  0  0  0  0  0  0  0  0
    3.8199   -0.3849   -2.7256 H   0  0  0  0  0  0  0  0  0  0  0  0
    2.8180   -1.3863   -1.6307 H   0  0  0  0  0  0  0  0  0  0  0  0
    4.1704   -0.4058   -0.9754 H   0  0  0  0  0  0  0  0  0  0  0  0
    3.1527    2.1152   -1.6243 C   0  0  0  0  0  0  0  0  0  0  0  0
    3.9112    2.2201   -0.8209 H   0  0  0  0  0  0  0  0  0  0  0  0
    2.4666    2.9848   -1.5736 H   0  0  0  0  0  0  0  0  0  0  0  0
    3.6943    2.1899   -2.5902 H   0  0  0  0  0  0  0  0  0  0  0  0
    1.8195    1.4925    2.6032 C   0  0  0  0  0  0  0  0  0  0  0  0
    0.9270    0.9380    2.9551 H   0  0  0  0  0  0  0  0  0  0  0  0
    1.5010    2.5218    2.3491 H   0  0  0  0  0  0  0  0  0  0  0  0
    2.5265    1.5569    3.4561 H   0  0  0  0  0  0  0  0  0  0  0  0
    3.0289   -0.6017    1.8494 C   0  0  0  0  0  0  0  0  0  0  0  0
    3.8279   -0.4796    2.6097 H   0  0  0  0  0  0  0  0  0  0  0  0
    3.4497   -1.1812    1.0057 H   0  0  0  0  0  0  0  0  0  0  0  0
    2.2254   -1.2160    2.3009 H   0  0  0  0  0  0  0  0  0  0  0  0
   -2.5259   -2.9472   -0.1218 O   0  0  0  0  0  0  0  0  0  0  0  0
   -4.1514   -1.0491   -0.1135 H   0  0  0  0  0  0  0  0  0  0  0  0
    0.8422    3.0048   -0.0280 H   0  0  0  0  0  0  0  0  0  0  0  0
  1 15  1  0  0  0  0
  2  5  1  0  0  0  0
  3 12  1  0  0  0  0
  4 36  1  0  0  0  0
  4  1  1  0  0  0  0
  5  4  1  6  0  0  0
  6  5  1  0  0  0  0
  6  7  1  0  0  0  0
  8  1  1  0  0  0  0
  9  8  1  0  0  0  0
 10 12  2  0  0  0  0
 10 13  1  0  0  0  0
 11 10  1  0  0  0  0
 12  2  1  0  0  0  0
 13  6  2  0  0  0  0
 14 13  1  0  0  0  0
 15 30  1  0  0  0  0
 15 26  1  0  0  0  0
 16 15  1  0  0  0  0
 17  3  1  0  0  0  0
 18 20  1  0  0  0  0
 18  8  1  0  0  0  0
 18 21  1  0  0  0  0
 19 18  1  0  0  0  0
 22 24  1  0  0  0  0
 22  8  1  0  0  0  0
 22 23  1  0  0  0  0
 25 22  1  0  0  0  0
 26 27  1  0  0  0  0
 26 29  1  0  0  0  0
 28 26  1  0  0  0  0
 30 33  1  0  0  0  0
 30 31  1  0  0  0  0
 32 30  1  0  0  0  0
 34 17  2  0  0  0  0
 35  3  1  0  0  0  0
M  END
