1,23,39
 OpenBabel05122313063D

 73 74  0  0  0  0  0  0  0  0999 V2000
   -2.7734   -1.0487    0.3988 P   0  0  0  0  0  0  0  0  0  0  0  0
   -3.5677   -2.3266   -0.6978 C   0  0  0  0  0  0  0  0  0  0  0  0
   -3.1351   -3.2872   -0.3374 H   0  0  0  0  0  0  0  0  0  0  0  0
   -5.0952   -2.3569   -0.5754 C   0  0  0  0  0  0  0  0  0  0  0  0
   -5.4354   -2.6566    0.4356 H   0  0  0  0  0  0  0  0  0  0  0  0
   -5.5212   -3.0838   -1.2978 H   0  0  0  0  0  0  0  0  0  0  0  0
   -5.5212   -1.3589   -0.8028 H   0  0  0  0  0  0  0  0  0  0  0  0
   -3.1029   -2.0851   -2.1400 C   0  0  0  0  0  0  0  0  0  0  0  0
   -3.4879   -1.1147   -2.5140 H   0  0  0  0  0  0  0  0  0  0  0  0
   -3.4797   -2.8874   -2.8073 H   0  0  0  0  0  0  0  0  0  0  0  0
   -1.9964   -2.0538   -2.1990 H   0  0  0  0  0  0  0  0  0  0  0  0
   -3.5187   -1.2602    2.0888 C   0  0  0  0  0  0  0  0  0  0  0  0
   -4.6193   -1.2147    1.9400 H   0  0  0  0  0  0  0  0  0  0  0  0
   -3.1237   -2.6211    2.6738 C   0  0  0  0  0  0  0  0  0  0  0  0
   -3.5048   -3.4697    2.0702 H   0  0  0  0  0  0  0  0  0  0  0  0
   -3.5359   -2.7297    3.6984 H   0  0  0  0  0  0  0  0  0  0  0  0
   -2.0210   -2.7208    2.7416 H   0  0  0  0  0  0  0  0  0  0  0  0
   -3.0815   -0.0869    2.9729 C   0  0  0  0  0  0  0  0  0  0  0  0
   -1.9776   -0.0718    3.0810 H   0  0  0  0  0  0  0  0  0  0  0  0
   -3.5375   -0.1760    3.9809 H   0  0  0  0  0  0  0  0  0  0  0  0
   -3.3901    0.8832    2.5369 H   0  0  0  0  0  0  0  0  0  0  0  0
   -3.6311    0.3452   -0.1297 O   0  0  0  0  0  0  0  0  0  0  0  0
   -1.4099    1.2253   -0.3114 C   0  0  0  0  0  3  0  0  0  0  0  0
   -2.7962    1.4057   -0.4201 C   0  0  0  0  0  0  0  0  0  0  0  0
   -3.3431    2.6535   -0.8053 C   0  0  0  0  0  0  0  0  0  0  0  0
   -4.7050    2.7307   -0.8895 O   0  0  0  0  0  0  0  0  0  0  0  0
   -5.2724    3.9658   -1.2659 C   0  0  0  0  0  0  0  0  0  0  0  0
   -6.3694    3.8217   -1.2693 H   0  0  0  0  0  0  0  0  0  0  0  0
   -4.9486    4.2843   -2.2838 H   0  0  0  0  0  0  0  0  0  0  0  0
   -5.0186    4.7803   -0.5486 H   0  0  0  0  0  0  0  0  0  0  0  0
   -2.4501    3.7147   -1.0720 C   0  0  0  0  0  0  0  0  0  0  0  0
   -2.8435    4.6923   -1.3816 H   0  0  0  0  0  0  0  0  0  0  0  0
   -1.0552    3.5487   -0.9402 C   0  0  0  0  0  0  0  0  0  0  0  0
   -0.3924    4.4064   -1.1373 H   0  0  0  0  0  0  0  0  0  0  0  0
   -0.5326    2.3084   -0.5460 C   0  0  0  0  0  0  0  0  0  0  0  0
    0.9124    2.0186   -0.2352 C   0  0  0  0  0  0  0  0  0  0  0  0
    1.6265    2.6307   -0.8338 H   0  0  0  0  0  0  0  0  0  0  0  0
    1.1273    2.2386    0.8291 H   0  0  0  0  0  0  0  0  0  0  0  0
    1.2182    0.5536   -0.4487 N   0  0  0  0  0  0  0  0  0  0  0  0
    1.4139    0.3598   -1.9182 C   0  0  0  0  0  0  0  0  0  0  0  0
    0.5204    0.7963   -2.4075 H   0  0  0  0  0  0  0  0  0  0  0  0
    2.2973    0.9636   -2.2346 H   0  0  0  0  0  0  0  0  0  0  0  0
    1.5624   -1.0809   -2.4016 C   0  0  0  0  0  0  0  0  0  0  0  0
    1.3940   -1.0937   -3.5050 H   0  0  0  0  0  0  0  0  0  0  0  0
    0.7625   -1.6914   -1.9298 H   0  0  0  0  0  0  0  0  0  0  0  0
    2.8016   -1.6939   -2.0753 O   0  0  0  0  0  0  0  0  0  0  0  0
    3.8806   -1.3642   -2.9280 C   0  0  0  0  0  0  0  0  0  0  0  0
    3.7804   -0.3363   -3.3484 H   0  0  0  0  0  0  0  0  0  0  0  0
    3.9294   -2.0735   -3.7911 H   0  0  0  0  0  0  0  0  0  0  0  0
    5.1836   -1.4259   -2.1546 C   0  0  0  0  0  0  0  0  0  0  0  0
    5.2075   -2.3674   -1.5528 H   0  0  0  0  0  0  0  0  0  0  0  0
    6.0405   -1.4685   -2.8740 H   0  0  0  0  0  0  0  0  0  0  0  0
    5.2782   -0.2878   -1.3237 O   0  0  0  0  0  0  0  0  0  0  0  0
    6.3807   -0.3046   -0.4451 C   0  0  0  0  0  0  0  0  0  0  0  0
    7.3475   -0.3086   -1.0098 H   0  0  0  0  0  0  0  0  0  0  0  0
    6.3689   -1.2187    0.1985 H   0  0  0  0  0  0  0  0  0  0  0  0
    6.3300    0.9273    0.4368 C   0  0  0  0  0  0  0  0  0  0  0  0
    7.3139    1.0549    0.9544 H   0  0  0  0  0  0  0  0  0  0  0  0
    6.1761    1.8255   -0.2106 H   0  0  0  0  0  0  0  0  0  0  0  0
    5.2805    0.7922    1.3705 O   0  0  0  0  0  0  0  0  0  0  0  0
    4.9494    1.9885    2.0455 C   0  0  0  0  0  0  0  0  0  0  0  0
    4.6751    2.7912    1.3160 H   0  0  0  0  0  0  0  0  0  0  0  0
    5.8207    2.3659    2.6404 H   0  0  0  0  0  0  0  0  0  0  0  0
    3.7820    1.7411    2.9936 C   0  0  0  0  0  0  0  0  0  0  0  0
    4.0444    0.8829    3.6597 H   0  0  0  0  0  0  0  0  0  0  0  0
    3.6682    2.6408    3.6348 H   0  0  0  0  0  0  0  0  0  0  0  0
    2.5302    1.5328    2.3781 O   0  0  0  0  0  0  0  0  0  0  0  0
    2.3019    0.2368    1.8198 C   0  0  0  0  0  0  0  0  0  0  0  0
    1.2600   -0.0632    2.0860 H   0  0  0  0  0  0  0  0  0  0  0  0
    3.0000   -0.4981    2.2750 H   0  0  0  0  0  0  0  0  0  0  0  0
    2.4475    0.1603    0.3031 C   0  0  0  0  0  0  0  0  0  0  0  0
    3.3093    0.7722   -0.0329 H   0  0  0  0  0  0  0  0  0  0  0  0
    2.6827   -0.8768    0.0072 H   0  0  0  0  0  0  0  0  0  0  0  0
  1 12  1  0  0  0  0
  2  4  1  0  0  0  0
  2  3  1  0  0  0  0
  2  1  1  0  0  0  0
  4  5  1  0  0  0  0
  6  4  1  0  0  0  0
  7  4  1  0  0  0  0
  8  2  1  0  0  0  0
  9  8  1  0  0  0  0
 10  8  1  0  0  0  0
 11  8  1  0  0  0  0
 12 14  1  0  0  0  0
 12 18  1  0  0  0  0
 13 12  1  0  0  0  0
 14 17  1  0  0  0  0
 14 16  1  0  0  0  0
 15 14  1  0  0  0  0
 18 19  1  0  0  0  0
 18 20  1  0  0  0  0
 21 18  1  0  0  0  0
 22  1  1  0  0  0  0
 24 23  1  0  0  0  0
 24 22  1  0  0  0  0
 25 24  2  0  0  0  0
 26 25  1  0  0  0  0
 27 26  1  0  0  0  0
 27 30  1  0  0  0  0
 28 27  1  0  0  0  0
 29 27  1  0  0  0  0
 31 33  2  0  0  0  0
 31 25  1  0  0  0  0
 32 31  1  0  0  0  0
 33 35  1  0  0  0  0
 34 33  1  0  0  0  0
 35 23  2  0  0  0  0
 35 36  1  0  0  0  0
 36 38  1  0  0  0  0
 37 36  1  0  0  0  0
 39 36  1  0  0  0  0
 39 71  1  0  0  0  0
 40 39  1  0  0  0  0
 41 40  1  0  0  0  0
 42 40  1  0  0  0  0
 43 46  1  0  0  0  0
 43 45  1  0  0  0  0
 43 40  1  0  0  0  0
 44 43  1  0  0  0  0
 47 50  1  0  0  0  0
 47 46  1  0  0  0  0
 48 47  1  0  0  0  0
 49 47  1  0  0  0  0
 50 51  1  0  0  0  0
 50 53  1  0  0  0  0
 52 50  1  0  0  0  0
 53 54  1  0  0  0  0
 54 56  1  0  0  0  0
 54 57  1  0  0  0  0
 55 54  1  0  0  0  0
 57 58  1  0  0  0  0
 57 60  1  0  0  0  0
 59 57  1  0  0  0  0
 60 61  1  0  0  0  0
 61 63  1  0  0  0  0
 61 64  1  0  0  0  0
 62 61  1  0  0  0  0
 64 66  1  0  0  0  0
 64 65  1  0  0  0  0
 67 64  1  0  0  0  0
 68 69  1  0  0  0  0
 68 70  1  0  0  0  0
 68 67  1  0  0  0  0
 71 68  1  0  0  0  0
 72 71  1  0  0  0  0
 73 71  1  0  0  0  0
M  END
