1,3,24
 OpenBabel05122313063D

 71 75  0  0  0  0  0  0  0  0999 V2000
    2.2260   -0.3671    0.1606 P   0  0  0  0  0  0  0  0  0  0  0  0
    1.8278   -1.8445    0.9450 O   0  0  0  0  0  0  0  0  0  0  0  0
   -1.7881    0.9775   -0.2984 N   0  0  0  0  0  2  0  0  0  0  0  0
   -3.8618    0.3153    0.2353 N   0  0  0  0  0  0  0  0  0  0  0  0
   -2.4147    3.1656   -1.4102 C   0  0  0  0  0  0  0  0  0  0  0  0
   -1.3793    3.4573   -1.6428 H   0  0  0  0  0  0  0  0  0  0  0  0
   -3.5301    3.9428   -1.7406 C   0  0  0  0  0  0  0  0  0  0  0  0
   -3.3835    4.9002   -2.2627 H   0  0  0  0  0  0  0  0  0  0  0  0
   -4.8480    3.5295   -1.4225 C   0  0  0  0  0  0  0  0  0  0  0  0
   -5.6960    4.1712   -1.7050 H   0  0  0  0  0  0  0  0  0  0  0  0
   -5.1008    2.3208   -0.7583 C   0  0  0  0  0  0  0  0  0  0  0  0
   -6.1272    2.0056   -0.5207 H   0  0  0  0  0  0  0  0  0  0  0  0
   -3.9839    1.5396   -0.4229 C   0  0  0  0  0  0  0  0  0  0  0  0
   -2.6576    1.9494   -0.7452 C   0  0  0  0  0  0  0  0  0  0  0  0
   -2.5195   -0.0001    0.2779 C   0  0  0  0  0  0  0  0  0  0  0  0
   -1.8038   -1.1553    0.8192 C   0  0  0  0  0  0  0  0  0  0  0  0
   -2.3153   -2.3265    1.4300 C   0  0  0  0  0  3  0  0  0  0  0  0
   -3.3927   -2.4893    1.5570 H   0  0  0  0  0  0  0  0  0  0  0  0
   -1.4255   -3.3159    1.8760 C   0  0  0  0  0  0  0  0  0  0  0  0
   -1.8254   -4.2246    2.3502 H   0  0  0  0  0  0  0  0  0  0  0  0
   -0.0323   -3.1766    1.7278 C   0  0  0  0  0  0  0  0  0  0  0  0
    0.6600   -3.9559    2.0780 H   0  0  0  0  0  0  0  0  0  0  0  0
    0.4698   -2.0178    1.1142 C   0  0  0  0  0  0  0  0  0  0  0  0
   -0.3995   -1.0082    0.6570 C   0  0  0  0  0  3  0  0  0  0  0  0
    3.3827    0.3966    1.3755 C   0  0  0  0  0  0  0  0  0  0  0  0
    4.1089   -0.4009    1.6549 H   0  0  0  0  0  0  0  0  0  0  0  0
    2.5951    0.8224    2.6301 C   0  0  0  0  0  0  0  0  0  0  0  0
    2.1030   -0.0611    3.0861 H   0  0  0  0  0  0  0  0  0  0  0  0
    1.7809    1.5115    2.3131 H   0  0  0  0  0  0  0  0  0  0  0  0
    3.5032    1.5280    3.6450 C   0  0  0  0  0  0  0  0  0  0  0  0
    2.9036    1.8498    4.5220 H   0  0  0  0  0  0  0  0  0  0  0  0
    4.2585    0.8056    4.0296 H   0  0  0  0  0  0  0  0  0  0  0  0
    4.2217    2.7252    3.0110 C   0  0  0  0  0  0  0  0  0  0  0  0
    3.4671    3.4877    2.7153 H   0  0  0  0  0  0  0  0  0  0  0  0
    4.8913    3.2132    3.7499 H   0  0  0  0  0  0  0  0  0  0  0  0
    5.0155    2.2981    1.7706 C   0  0  0  0  0  0  0  0  0  0  0  0
    5.8370    1.6130    2.0815 H   0  0  0  0  0  0  0  0  0  0  0  0
    5.5022    3.1763    1.2975 H   0  0  0  0  0  0  0  0  0  0  0  0
    4.1263    1.5884    0.7397 C   0  0  0  0  0  0  0  0  0  0  0  0
    4.7433    1.2473   -0.1179 H   0  0  0  0  0  0  0  0  0  0  0  0
    3.3754    2.2957    0.3212 H   0  0  0  0  0  0  0  0  0  0  0  0
    3.2074   -0.9446   -1.2874 C   0  0  0  0  0  0  0  0  0  0  0  0
    3.5326    0.0096   -1.7640 H   0  0  0  0  0  0  0  0  0  0  0  0
    4.4345   -1.7928   -0.9097 C   0  0  0  0  0  0  0  0  0  0  0  0
    4.0886   -2.6713   -0.3221 H   0  0  0  0  0  0  0  0  0  0  0  0
    5.1207   -1.2188   -0.2532 H   0  0  0  0  0  0  0  0  0  0  0  0
    5.1858   -2.2688   -2.1623 C   0  0  0  0  0  0  0  0  0  0  0  0
    5.6222   -1.3849   -2.6796 H   0  0  0  0  0  0  0  0  0  0  0  0
    6.0411   -2.9109   -1.8645 H   0  0  0  0  0  0  0  0  0  0  0  0
    4.2607   -3.0139   -3.1320 C   0  0  0  0  0  0  0  0  0  0  0  0
    4.8207   -3.3217   -4.0398 H   0  0  0  0  0  0  0  0  0  0  0  0
    3.9054   -3.9521   -2.6489 H   0  0  0  0  0  0  0  0  0  0  0  0
    3.0496   -2.1535   -3.5127 C   0  0  0  0  0  0  0  0  0  0  0  0
    2.3687   -2.7127   -4.1876 H   0  0  0  0  0  0  0  0  0  0  0  0
    3.3954   -1.2630   -4.0840 H   0  0  0  0  0  0  0  0  0  0  0  0
    2.2795   -1.6839   -2.2721 C   0  0  0  0  0  0  0  0  0  0  0  0
    1.8363   -2.5629   -1.7539 H   0  0  0  0  0  0  0  0  0  0  0  0
    1.4343   -1.0219   -2.5532 H   0  0  0  0  0  0  0  0  0  0  0  0
   -4.9827   -0.4851    0.7061 C   0  0  0  0  0  0  0  0  0  0  0  0
   -4.6883   -0.9613    1.6607 H   0  0  0  0  0  0  0  0  0  0  0  0
   -5.8067    0.2155    0.9523 H   0  0  0  0  0  0  0  0  0  0  0  0
   -5.4541   -1.5187   -0.3244 C   0  0  0  0  0  0  0  0  0  0  0  0
   -4.5964   -2.1734   -0.5931 H   0  0  0  0  0  0  0  0  0  0  0  0
   -5.7338   -0.9775   -1.2528 H   0  0  0  0  0  0  0  0  0  0  0  0
   -6.6319   -2.3740    0.1605 C   0  0  0  0  0  0  0  0  0  0  0  0
   -7.4748   -1.7080    0.4520 H   0  0  0  0  0  0  0  0  0  0  0  0
   -7.0066   -2.9683   -0.6993 H   0  0  0  0  0  0  0  0  0  0  0  0
   -6.2962   -3.3204    1.3169 C   0  0  0  0  0  0  0  0  0  0  0  0
   -5.4682   -4.0079    1.0445 H   0  0  0  0  0  0  0  0  0  0  0  0
   -7.1693   -3.9450    1.5924 H   0  0  0  0  0  0  0  0  0  0  0  0
   -5.9884   -2.7761    2.2337 H   0  0  0  0  0  0  0  0  0  0  0  0
  1  2  1  0  0  0  0
  1 25  1  0  0  0  0
  2 23  1  0  0  0  0
  3 15  1  0  0  0  0
  4 15  1  0  0  0  0
  4 59  1  0  0  0  0
  5 14  1  0  0  0  0
  6  5  1  0  0  0  0
  7  9  1  0  0  0  0
  7  5  2  0  0  0  0
  8  7  1  0  0  0  0
  9 11  2  0  0  0  0
 10  9  1  0  0  0  0
 11 12  1  0  0  0  0
 11 13  1  0  0  0  0
 13  4  1  0  0  0  0
 14 13  2  0  0  0  0
 14  3  1  0  0  0  0
 15 16  2  0  0  0  0
 16 17  1  0  0  0  0
 17 18  1  0  0  0  0
 17 19  1  0  0  0  0
 19 20  1  0  0  0  0
 21 19  2  0  0  0  0
 21 22  1  0  0  0  0
 23 21  1  0  0  0  0
 24 16  1  0  0  0  0
 24 23  2  0  0  0  0
 25 26  1  0  0  0  0
 25 27  1  0  0  0  0
 27 28  1  0  0  0  0
 27 30  1  0  0  0  0
 29 27  1  0  0  0  0
 30 32  1  0  0  0  0
 30 31  1  0  0  0  0
 33 30  1  0  0  0  0
 33 35  1  0  0  0  0
 34 33  1  0  0  0  0
 36 37  1  0  0  0  0
 36 33  1  0  0  0  0
 38 36  1  0  0  0  0
 39 25  1  0  0  0  0
 39 36  1  0  0  0  0
 40 39  1  0  0  0  0
 41 39  1  0  0  0  0
 42 44  1  0  0  0  0
 42  1  1  0  0  0  0
 43 42  1  0  0  0  0
 44 45  1  0  0  0  0
 44 46  1  0  0  0  0
 47 49  1  0  0  0  0
 47 44  1  0  0  0  0
 48 47  1  0  0  0  0
 50 52  1  0  0  0  0
 50 47  1  0  0  0  0
 51 50  1  0  0  0  0
 53 50  1  0  0  0  0
 53 56  1  0  0  0  0
 54 53  1  0  0  0  0
 55 53  1  0  0  0  0
 56 57  1  0  0  0  0
 56 42  1  0  0  0  0
 58 56  1  0  0  0  0
 59 61  1  0  0  0  0
 59 60  1  0  0  0  0
 62 65  1  0  0  0  0
 62 59  1  0  0  0  0
 63 62  1  0  0  0  0
 64 62  1  0  0  0  0
 65 66  1  0  0  0  0
 65 68  1  0  0  0  0
 67 65  1  0  0  0  0
 68 70  1  0  0  0  0
 68 71  1  0  0  0  0
 69 68  1  0  0  0  0
M  END
