1,29,31
 OpenBabel05122313063D

 68 71  0  0  0  0  0  0  0  0999 V2000
    1.5135    0.4639   -0.8154 P   0  0  0  0  0  0  0  0  0  0  0  0
   -1.8977    0.2550   -0.8657 P   0  0  0  0  0  4  0  0  0  0  0  0
    3.1960    0.1283   -1.4354 C   0  0  0  0  0  0  0  0  0  0  0  0
    3.5757   -1.2114   -1.6555 C   0  0  0  0  0  0  0  0  0  0  0  0
    4.8396   -1.4968   -2.1890 C   0  0  0  0  0  0  0  0  0  0  0  0
    5.7285   -0.4521   -2.4907 C   0  0  0  0  0  0  0  0  0  0  0  0
    5.3550    0.8812   -2.2580 C   0  0  0  0  0  0  0  0  0  0  0  0
    4.0896    1.1771   -1.7301 C   0  0  0  0  0  0  0  0  0  0  0  0
    1.5226    2.1041    0.0003 C   0  0  0  0  0  0  0  0  0  0  0  0
    1.6722    2.1697    1.4017 C   0  0  0  0  0  0  0  0  0  0  0  0
    1.6678    3.4152    2.0450 C   0  0  0  0  0  0  0  0  0  0  0  0
    1.5150    4.5981    1.3042 C   0  0  0  0  0  0  0  0  0  0  0  0
    1.3764    4.5378   -0.0917 C   0  0  0  0  0  0  0  0  0  0  0  0
    1.3818    3.2958   -0.7447 C   0  0  0  0  0  0  0  0  0  0  0  0
    0.5286    0.7113   -2.3716 C   0  0  0  0  0  0  0  0  0  0  0  0
   -0.9307    1.1422   -2.1710 C   0  0  0  0  0  0  0  0  0  0  0  0
   -1.9354    1.2289    0.6634 C   0  0  0  0  0  0  0  0  0  0  0  0
   -2.1509    0.5597    1.8869 C   0  0  0  0  0  0  0  0  0  0  0  0
   -2.2212    1.2993    3.0750 C   0  0  0  0  0  0  0  0  0  0  0  0
   -2.0803    2.6966    3.0507 C   0  0  0  0  0  0  0  0  0  0  0  0
   -1.8835    3.3611    1.8307 C   0  0  0  0  0  0  0  0  0  0  0  0
   -1.8186    2.6329    0.6342 C   0  0  0  0  0  0  0  0  0  0  0  0
   -3.6094    0.1512   -1.4824 C   0  0  0  0  0  0  0  0  0  0  0  0
   -3.8605   -0.5860   -2.6620 C   0  0  0  0  0  0  0  0  0  0  0  0
   -5.1711   -0.7148   -3.1391 C   0  0  0  0  0  0  0  0  0  0  0  0
   -6.2350   -0.1160   -2.4425 C   0  0  0  0  0  0  0  0  0  0  0  0
   -5.9884    0.6093   -1.2669 C   0  0  0  0  0  0  0  0  0  0  0  0
   -4.6787    0.7443   -0.7811 C   0  0  0  0  0  0  0  0  0  0  0  0
   -1.1198   -1.3806   -0.7207 C   0  0  0  0  0  3  0  0  0  0  0  0
   -1.9506   -2.5481   -0.1599 C   0  0  0  0  0  0  0  0  0  0  0  0
   -0.3783   -2.6968    1.6573 N   0  0  0  0  0  0  0  0  0  0  0  0
   -0.2789   -2.4023    3.1045 C   0  0  0  0  0  0  0  0  0  0  0  0
    0.2581   -4.0065    1.3615 C   0  0  0  0  0  0  0  0  0  0  0  0
   -1.7787   -2.6401    1.2848 N   0  0  0  0  0  0  0  0  0  0  0  0
    2.8831   -2.0227   -1.3828 H   0  0  0  0  0  0  0  0  0  0  0  0
    5.1388   -2.5422   -2.3559 H   0  0  0  0  0  0  0  0  0  0  0  0
    6.7244   -0.6794   -2.8995 H   0  0  0  0  0  0  0  0  0  0  0  0
    6.0571    1.6985   -2.4804 H   0  0  0  0  0  0  0  0  0  0  0  0
    3.8081    2.2222   -1.5318 H   0  0  0  0  0  0  0  0  0  0  0  0
    1.8071    1.2392    1.9760 H   0  0  0  0  0  0  0  0  0  0  0  0
    1.7869    3.4597    3.1378 H   0  0  0  0  0  0  0  0  0  0  0  0
    1.5121    5.5731    1.8145 H   0  0  0  0  0  0  0  0  0  0  0  0
    1.2709    5.4626   -0.6786 H   0  0  0  0  0  0  0  0  0  0  0  0
    1.2861    3.2699   -1.8409 H   0  0  0  0  0  0  0  0  0  0  0  0
    0.5932   -0.2643   -2.8941 H   0  0  0  0  0  0  0  0  0  0  0  0
    1.0483    1.4405   -3.0260 H   0  0  0  0  0  0  0  0  0  0  0  0
   -0.9975    2.2213   -1.9316 H   0  0  0  0  0  0  0  0  0  0  0  0
   -1.5030    0.9976   -3.1098 H   0  0  0  0  0  0  0  0  0  0  0  0
   -2.2495   -0.5398    1.8999 H   0  0  0  0  0  0  0  0  0  0  0  0
   -2.3857    0.7786    4.0305 H   0  0  0  0  0  0  0  0  0  0  0  0
   -2.1272    3.2712    3.9878 H   0  0  0  0  0  0  0  0  0  0  0  0
   -1.7723    4.4546    1.8050 H   0  0  0  0  0  0  0  0  0  0  0  0
   -1.6621    3.1760   -0.3083 H   0  0  0  0  0  0  0  0  0  0  0  0
   -3.0345   -1.0655   -3.2120 H   0  0  0  0  0  0  0  0  0  0  0  0
   -5.3646   -1.2862   -4.0590 H   0  0  0  0  0  0  0  0  0  0  0  0
   -7.2634   -0.2181   -2.8198 H   0  0  0  0  0  0  0  0  0  0  0  0
   -6.8214    1.0770   -0.7215 H   0  0  0  0  0  0  0  0  0  0  0  0
   -4.4870    1.3126    0.1409 H   0  0  0  0  0  0  0  0  0  0  0  0
   -0.8537   -1.6165   -1.7750 H   0  0  0  0  0  0  0  0  0  0  0  0
   -1.6272   -3.4692   -0.7020 H   0  0  0  0  0  0  0  0  0  0  0  0
   -3.0409   -2.4400   -0.3504 H   0  0  0  0  0  0  0  0  0  0  0  0
    0.7917   -2.3441    3.3727 H   0  0  0  0  0  0  0  0  0  0  0  0
   -0.7858   -3.2004    3.6900 H   0  0  0  0  0  0  0  0  0  0  0  0
   -0.7532   -1.4272    3.3053 H   0  0  0  0  0  0  0  0  0  0  0  0
    0.1724   -4.2344    0.2838 H   0  0  0  0  0  0  0  0  0  0  0  0
   -0.2223   -4.8118    1.9607 H   0  0  0  0  0  0  0  0  0  0  0  0
    1.3303   -3.9332    1.6229 H   0  0  0  0  0  0  0  0  0  0  0  0
   -2.2553   -3.4740    1.6667 H   0  0  0  0  0  0  0  0  0  0  0  0
  1  9  1  0  0  0  0
  2 29  1  0  0  0  0
  2 17  1  0  0  0  0
  3  1  1  0  0  0  0
  4  3  1  0  0  0  0
  4 35  1  0  0  0  0
  5  4  2  0  0  0  0
  6  7  2  0  0  0  0
  6  5  1  0  0  0  0
  7  8  1  0  0  0  0
  8 39  1  0  0  0  0
  8  3  2  0  0  0  0
  9 10  1  0  0  0  0
 10 40  1  0  0  0  0
 10 11  2  0  0  0  0
 11 41  1  0  0  0  0
 12 42  1  0  0  0  0
 12 11  1  0  0  0  0
 13 12  2  0  0  0  0
 14 13  1  0  0  0  0
 14  9  2  0  0  0  0
 15 16  1  0  0  0  0
 15  1  1  0  0  0  0
 16 47  1  0  0  0  0
 16  2  1  0  0  0  0
 17 18  1  0  0  0  0
 18 49  1  0  0  0  0
 18 19  2  0  0  0  0
 19 50  1  0  0  0  0
 20 19  1  0  0  0  0
 20 51  1  0  0  0  0
 21 20  2  0  0  0  0
 22 17  2  0  0  0  0
 22 21  1  0  0  0  0
 23  2  1  0  0  0  0
 23 28  1  0  0  0  0
 24 23  2  0  0  0  0
 25 24  1  0  0  0  0
 25 26  2  0  0  0  0
 26 27  1  0  0  0  0
 27 28  2  0  0  0  0
 27 57  1  0  0  0  0
 28 58  1  0  0  0  0
 29 30  1  0  0  0  0
 30 34  1  0  0  0  0
 31 32  1  0  0  0  0
 32 64  1  0  0  0  0
 32 62  1  0  0  0  0
 32 63  1  0  0  0  0
 33 67  1  0  0  0  0
 33 31  1  0  0  0  0
 33 66  1  0  0  0  0
 34 31  1  0  0  0  0
 34 68  1  0  0  0  0
 36  5  1  0  0  0  0
 37  6  1  0  0  0  0
 38  7  1  0  0  0  0
 43 13  1  0  0  0  0
 44 14  1  0  0  0  0
 45 15  1  0  0  0  0
 46 15  1  0  0  0  0
 48 16  1  0  0  0  0
 52 21  1  0  0  0  0
 53 22  1  0  0  0  0
 54 24  1  0  0  0  0
 55 25  1  0  0  0  0
 56 26  1  0  0  0  0
 59 29  1  0  0  0  0
 60 30  1  0  0  0  0
 61 30  1  0  0  0  0
 65 33  1  0  0  0  0
M  END
