1,2,3
 OpenBabel05122313063D

 46 49  0  0  0  0  0  0  0  0999 V2000
   -1.2990   -0.0153   -0.0541 P   0  0  0  0  0  0  0  0  0  0  0  0
    1.2374    1.4974   -0.3534 N   0  0  0  0  0  2  0  0  0  0  0  0
    3.0470   -0.4677   -0.1241 C   0  0  0  0  0  3  0  0  0  0  0  0
    4.0232   -1.4756   -0.0146 C   0  0  0  0  0  0  0  0  0  0  0  0
    3.7242   -2.5088    0.2185 H   0  0  0  0  0  0  0  0  0  0  0  0
    5.3853   -1.1819   -0.1868 C   0  0  0  0  0  0  0  0  0  0  0  0
    6.1276   -1.9896   -0.0856 H   0  0  0  0  0  0  0  0  0  0  0  0
    5.8236    0.1268   -0.4836 C   0  0  0  0  0  0  0  0  0  0  0  0
    6.8956    0.3347   -0.6155 H   0  0  0  0  0  0  0  0  0  0  0  0
    4.8847    1.1497   -0.6047 C   0  0  0  0  0  0  0  0  0  0  0  0
    5.2018    2.1796   -0.8346 H   0  0  0  0  0  0  0  0  0  0  0  0
    3.5077    0.8602   -0.4267 C   0  0  0  0  0  0  0  0  0  0  0  0
    2.4916    1.8645   -0.5204 C   0  0  0  0  0  3  0  0  0  0  0  0
    2.7552    2.9185   -0.7192 H   0  0  0  0  0  0  0  0  0  0  0  0
    0.1340    2.3761   -0.3373 C   0  0  0  0  0  0  0  0  0  0  0  0
    0.2577    3.7811   -0.4391 C   0  0  0  0  0  0  0  0  0  0  0  0
    1.2474    4.2452   -0.5488 H   0  0  0  0  0  0  0  0  0  0  0  0
   -0.8731    4.6000   -0.3742 C   0  0  0  0  0  0  0  0  0  0  0  0
   -0.7526    5.6913   -0.4482 H   0  0  0  0  0  0  0  0  0  0  0  0
   -2.1520    4.0438   -0.1932 C   0  0  0  0  0  0  0  0  0  0  0  0
   -3.0365    4.6938   -0.1236 H   0  0  0  0  0  0  0  0  0  0  0  0
   -2.2881    2.6540   -0.0878 C   0  0  0  0  0  0  0  0  0  0  0  0
   -3.2797    2.2040    0.0743 H   0  0  0  0  0  0  0  0  0  0  0  0
   -1.1621    1.8156   -0.1742 C   0  0  0  0  0  0  0  0  0  0  0  0
   -2.5953   -0.2993    1.2142 C   0  0  0  0  0  0  0  0  0  0  0  0
   -3.9371   -0.5555    0.8615 C   0  0  0  0  0  0  0  0  0  0  0  0
   -4.2290   -0.6162   -0.1977 H   0  0  0  0  0  0  0  0  0  0  0  0
   -4.8994   -0.7414    1.8660 C   0  0  0  0  0  0  0  0  0  0  0  0
   -5.9454   -0.9417    1.5880 H   0  0  0  0  0  0  0  0  0  0  0  0
   -4.5280   -0.6758    3.2183 C   0  0  0  0  0  0  0  0  0  0  0  0
   -5.2847   -0.8248    4.0039 H   0  0  0  0  0  0  0  0  0  0  0  0
   -3.1903   -0.4264    3.5669 C   0  0  0  0  0  0  0  0  0  0  0  0
   -2.8945   -0.3823    4.6262 H   0  0  0  0  0  0  0  0  0  0  0  0
   -2.2185   -0.2387    2.5734 C   0  0  0  0  0  0  0  0  0  0  0  0
   -1.1609   -0.0518    2.8354 H   0  0  0  0  0  0  0  0  0  0  0  0
   -2.0923   -0.5562   -1.6212 C   0  0  0  0  0  0  0  0  0  0  0  0
   -2.2238   -1.9466   -1.8282 C   0  0  0  0  0  0  0  0  0  0  0  0
   -1.8652   -2.6521   -1.0619 H   0  0  0  0  0  0  0  0  0  0  0  0
   -2.8024   -2.4324   -3.0076 C   0  0  0  0  0  0  0  0  0  0  0  0
   -2.9034   -3.5178   -3.1588 H   0  0  0  0  0  0  0  0  0  0  0  0
   -3.2405   -1.5371   -3.9987 C   0  0  0  0  0  0  0  0  0  0  0  0
   -3.6879   -1.9200   -4.9284 H   0  0  0  0  0  0  0  0  0  0  0  0
   -3.0981   -0.1556   -3.8033 C   0  0  0  0  0  0  0  0  0  0  0  0
   -3.4321    0.5494   -4.5797 H   0  0  0  0  0  0  0  0  0  0  0  0
   -2.5279    0.3370   -2.6176 C   0  0  0  0  0  0  0  0  0  0  0  0
   -2.4174    1.4215   -2.4715 H   0  0  0  0  0  0  0  0  0  0  0  0
  1 25  1  0  0  0  0
  2 15  1  0  0  0  0
  3  4  1  0  0  0  0
  4  5  1  0  0  0  0
  6  7  1  0  0  0  0
  6  4  2  0  0  0  0
  8  6  1  0  0  0  0
  9  8  1  0  0  0  0
 10  8  2  0  0  0  0
 10 12  1  0  0  0  0
 11 10  1  0  0  0  0
 12  3  2  0  0  0  0
 13 12  1  0  0  0  0
 13  2  1  0  0  0  0
 14 13  1  0  0  0  0
 15 24  1  0  0  0  0
 16 18  1  0  0  0  0
 16 15  2  0  0  0  0
 17 16  1  0  0  0  0
 18 20  2  0  0  0  0
 19 18  1  0  0  0  0
 20 21  1  0  0  0  0
 20 22  1  0  0  0  0
 22 23  1  0  0  0  0
 24 22  2  0  0  0  0
 24  1  1  0  0  0  0
 25 34  1  0  0  0  0
 26 25  2  0  0  0  0
 26 28  1  0  0  0  0
 27 26  1  0  0  0  0
 28 30  2  0  0  0  0
 29 28  1  0  0  0  0
 30 32  1  0  0  0  0
 30 31  1  0  0  0  0
 32 33  1  0  0  0  0
 34 35  1  0  0  0  0
 34 32  2  0  0  0  0
 36  1  1  0  0  0  0
 37 36  1  0  0  0  0
 37 38  1  0  0  0  0
 39 37  2  0  0  0  0
 40 39  1  0  0  0  0
 41 43  2  0  0  0  0
 41 39  1  0  0  0  0
 42 41  1  0  0  0  0
 43 45  1  0  0  0  0
 44 43  1  0  0  0  0
 45 46  1  0  0  0  0
 45 36  2  0  0  0  0
M  END
