1,3,4
 OpenBabel05122313063D

 49 51  0  0  0  0  0  0  0  0999 V2000
   -2.0962    0.4427    0.0575 P   0  0  0  0  0  0  0  0  0  0  0  0
   -1.6999    1.8179    1.0678 O   0  0  0  0  0  0  0  0  0  0  0  0
    2.0166   -0.3485   -1.1043 N   0  0  0  0  0  2  0  0  0  0  0  0
    0.4946    1.2766    0.3297 C   0  0  0  0  0  2  0  0  0  0  0  0
   -0.3566    2.1170    1.0675 C   0  0  0  0  0  0  0  0  0  0  0  0
    0.1731    3.2203    1.7770 C   0  0  0  0  0  0  0  0  0  0  0  0
   -0.5065    3.8666    2.3526 H   0  0  0  0  0  0  0  0  0  0  0  0
    1.5534    3.4909    1.7460 C   0  0  0  0  0  0  0  0  0  0  0  0
    1.9470    4.3540    2.3043 H   0  0  0  0  0  0  0  0  0  0  0  0
    2.4455    2.6722    1.0016 C   0  0  0  0  0  0  0  0  0  0  0  0
    3.8713    2.8472    0.8880 C   0  0  0  0  0  0  0  0  0  0  0  0
    4.3443    3.6891    1.4186 H   0  0  0  0  0  0  0  0  0  0  0  0
    4.6544    1.9934    0.1330 C   0  0  0  0  0  0  0  0  0  0  0  0
    5.7408    2.1573    0.0641 H   0  0  0  0  0  0  0  0  0  0  0  0
    4.0853    0.8763   -0.5836 C   0  0  0  0  0  0  0  0  0  0  0  0
    4.7975   -0.0507   -1.3853 C   0  0  0  0  0  0  0  0  0  0  0  0
    5.8877    0.0525   -1.5034 H   0  0  0  0  0  0  0  0  0  0  0  0
    4.1082   -1.0867   -2.0228 C   0  0  0  0  0  0  0  0  0  0  0  0
    4.6395   -1.8141   -2.6531 H   0  0  0  0  0  0  0  0  0  0  0  0
    2.7113   -1.2091   -1.8609 C   0  0  0  0  0  0  0  0  0  0  0  0
    2.1122   -2.0074   -2.3323 H   0  0  0  0  0  0  0  0  0  0  0  0
    2.6777    0.6830   -0.4793 C   0  0  0  0  0  0  0  0  0  0  0  0
    1.8733    1.5696    0.2984 C   0  0  0  0  0  0  0  0  0  0  0  0
   -3.1493    1.2954   -1.2813 C   0  0  0  0  0  0  0  0  0  0  0  0
   -4.4967    1.8269   -0.7704 C   0  0  0  0  0  0  0  0  0  0  0  0
   -5.2006    1.0125   -0.5152 H   0  0  0  0  0  0  0  0  0  0  0  0
   -4.9704    2.4247   -1.5777 H   0  0  0  0  0  0  0  0  0  0  0  0
   -4.3762    2.4876    0.1101 H   0  0  0  0  0  0  0  0  0  0  0  0
   -3.3683    0.2784   -2.4171 C   0  0  0  0  0  0  0  0  0  0  0  0
   -2.4164   -0.1656   -2.7688 H   0  0  0  0  0  0  0  0  0  0  0  0
   -3.8599    0.7907   -3.2711 H   0  0  0  0  0  0  0  0  0  0  0  0
   -4.0237   -0.5578   -2.1054 H   0  0  0  0  0  0  0  0  0  0  0  0
   -2.3256    2.4942   -1.7939 C   0  0  0  0  0  0  0  0  0  0  0  0
   -2.1730    3.2511   -1.0006 H   0  0  0  0  0  0  0  0  0  0  0  0
   -2.8802    2.9722   -2.6283 H   0  0  0  0  0  0  0  0  0  0  0  0
   -1.3326    2.1900   -2.1763 H   0  0  0  0  0  0  0  0  0  0  0  0
   -3.1424   -0.5368    1.2982 C   0  0  0  0  0  0  0  0  0  0  0  0
   -2.1362   -1.0799    2.3298 C   0  0  0  0  0  0  0  0  0  0  0  0
   -1.3577   -1.7041    1.8558 H   0  0  0  0  0  0  0  0  0  0  0  0
   -2.6849   -1.6954    3.0737 H   0  0  0  0  0  0  0  0  0  0  0  0
   -1.6383   -0.2529    2.8756 H   0  0  0  0  0  0  0  0  0  0  0  0
   -4.1895    0.3018    2.0497 C   0  0  0  0  0  0  0  0  0  0  0  0
   -3.7399    1.2261    2.4621 H   0  0  0  0  0  0  0  0  0  0  0  0
   -4.5754   -0.2974    2.9017 H   0  0  0  0  0  0  0  0  0  0  0  0
   -5.0556    0.5786    1.4253 H   0  0  0  0  0  0  0  0  0  0  0  0
   -3.7748   -1.7079    0.5256 C   0  0  0  0  0  0  0  0  0  0  0  0
   -4.5930   -1.3707   -0.1413 H   0  0  0  0  0  0  0  0  0  0  0  0
   -4.2119   -2.4309    1.2466 H   0  0  0  0  0  0  0  0  0  0  0  0
   -3.0213   -2.2440   -0.0901 H   0  0  0  0  0  0  0  0  0  0  0  0
  1  2  1  0  0  0  0
  1 37  1  0  0  0  0
  3 22  1  0  0  0  0
  4  5  1  0  0  0  0
  5  2  1  0  0  0  0
  5  6  2  0  0  0  0
  6  7  1  0  0  0  0
  8  6  1  0  0  0  0
  8  9  1  0  0  0  0
 10  8  2  0  0  0  0
 11 10  1  0  0  0  0
 11 12  1  0  0  0  0
 13 11  2  0  0  0  0
 14 13  1  0  0  0  0
 15 22  1  0  0  0  0
 15 13  1  0  0  0  0
 16 15  2  0  0  0  0
 17 16  1  0  0  0  0
 18 20  2  0  0  0  0
 18 16  1  0  0  0  0
 19 18  1  0  0  0  0
 20  3  1  0  0  0  0
 21 20  1  0  0  0  0
 22 23  2  0  0  0  0
 23  4  1  0  0  0  0
 23 10  1  0  0  0  0
 24 25  1  0  0  0  0
 24  1  1  0  0  0  0
 25 26  1  0  0  0  0
 25 28  1  0  0  0  0
 27 25  1  0  0  0  0
 29 32  1  0  0  0  0
 29 24  1  0  0  0  0
 30 29  1  0  0  0  0
 31 29  1  0  0  0  0
 33 24  1  0  0  0  0
 33 34  1  0  0  0  0
 35 33  1  0  0  0  0
 36 33  1  0  0  0  0
 37 42  1  0  0  0  0
 37 38  1  0  0  0  0
 38 41  1  0  0  0  0
 38 40  1  0  0  0  0
 39 38  1  0  0  0  0
 42 43  1  0  0  0  0
 42 44  1  0  0  0  0
 45 42  1  0  0  0  0
 46 48  1  0  0  0  0
 46 37  1  0  0  0  0
 47 46  1  0  0  0  0
 49 46  1  0  0  0  0
M  END
