1,3,15
 OpenBabel05122313063D

 46 49  0  0  0  0  0  0  0  0999 V2000
    1.3026    0.3806   -0.1472 P   0  0  0  0  0  0  0  0  0  0  0  0
    1.2922    1.9704   -0.6446 O   0  0  0  0  0  0  0  0  0  0  0  0
   -2.7297   -1.0928    0.3084 N   0  0  0  0  0  2  0  0  0  0  0  0
    0.4045    2.8420    0.0690 C   0  0  0  0  0  0  0  0  0  0  0  0
    0.6914    3.8693   -0.2297 H   0  0  0  0  0  0  0  0  0  0  0  0
    0.5960    2.7491    1.1643 H   0  0  0  0  0  0  0  0  0  0  0  0
   -1.0635    2.6008   -0.2190 C   0  0  0  0  0  0  0  0  0  0  0  0
   -1.8697    3.7172   -0.5176 C   0  0  0  0  0  0  0  0  0  0  0  0
   -1.3986    4.7100   -0.6079 H   0  0  0  0  0  0  0  0  0  0  0  0
   -3.2556    3.5882   -0.6931 C   0  0  0  0  0  0  0  0  0  0  0  0
   -3.8694    4.4691   -0.9320 H   0  0  0  0  0  0  0  0  0  0  0  0
   -3.8491    2.3313   -0.5499 C   0  0  0  0  0  3  0  0  0  0  0  0
   -4.9393    2.2316   -0.6630 H   0  0  0  0  0  0  0  0  0  0  0  0
   -3.0571    1.2004   -0.2562 C   0  0  0  0  0  0  0  0  0  0  0  0
   -1.6377    1.3141   -0.1179 C   0  0  0  0  0  3  0  0  0  0  0  0
   -3.6375   -0.1291   -0.0271 C   0  0  0  0  0  0  0  0  0  0  0  0
   -5.0059   -0.4593   -0.1027 C   0  0  0  0  0  0  0  0  0  0  0  0
   -5.7396    0.3107   -0.3762 H   0  0  0  0  0  0  0  0  0  0  0  0
   -5.4199   -1.7665    0.1718 C   0  0  0  0  0  0  0  0  0  0  0  0
   -6.4870   -2.0298    0.1140 H   0  0  0  0  0  0  0  0  0  0  0  0
   -4.4642   -2.7342    0.5192 C   0  0  0  0  0  0  0  0  0  0  0  0
   -4.7483   -3.7719    0.7431 H   0  0  0  0  0  0  0  0  0  0  0  0
   -3.1191   -2.3523    0.5726 C   0  0  0  0  0  0  0  0  0  0  0  0
   -2.2989   -3.0480    0.8217 H   0  0  0  0  0  0  0  0  0  0  0  0
    2.4718    0.4112    1.2698 C   0  0  0  0  0  0  0  0  0  0  0  0
    3.5236    1.3521    1.2596 C   0  0  0  0  0  0  0  0  0  0  0  0
    3.6229    2.0493    0.4139 H   0  0  0  0  0  0  0  0  0  0  0  0
    4.4288    1.3955    2.3285 C   0  0  0  0  0  0  0  0  0  0  0  0
    5.2477    2.1311    2.3220 H   0  0  0  0  0  0  0  0  0  0  0  0
    4.2928    0.5003    3.4034 C   0  0  0  0  0  0  0  0  0  0  0  0
    5.0064    0.5357    4.2409 H   0  0  0  0  0  0  0  0  0  0  0  0
    3.2484   -0.4373    3.4091 C   0  0  0  0  0  0  0  0  0  0  0  0
    3.1418   -1.1403    4.2492 H   0  0  0  0  0  0  0  0  0  0  0  0
    2.3307   -0.4838    2.3478 C   0  0  0  0  0  0  0  0  0  0  0  0
    1.5175   -1.2278    2.3293 H   0  0  0  0  0  0  0  0  0  0  0  0
    2.2497   -0.3374   -1.5346 C   0  0  0  0  0  0  0  0  0  0  0  0
    2.5314    0.4276   -2.6838 C   0  0  0  0  0  0  0  0  0  0  0  0
    2.1741    1.4647   -2.7466 H   0  0  0  0  0  0  0  0  0  0  0  0
    3.2684   -0.1435   -3.7326 C   0  0  0  0  0  0  0  0  0  0  0  0
    3.4899    0.4549   -4.6296 H   0  0  0  0  0  0  0  0  0  0  0  0
    3.7190   -1.4694   -3.6406 C   0  0  0  0  0  0  0  0  0  0  0  0
    4.2957   -1.9136   -4.4664 H   0  0  0  0  0  0  0  0  0  0  0  0
    3.4274   -2.2312   -2.4968 C   0  0  0  0  0  0  0  0  0  0  0  0
    3.7703   -3.2746   -2.4254 H   0  0  0  0  0  0  0  0  0  0  0  0
    2.6922   -1.6732   -1.4425 C   0  0  0  0  0  0  0  0  0  0  0  0
    2.4281   -2.2762   -0.5598 H   0  0  0  0  0  0  0  0  0  0  0  0
  1 25  1  0  0  0  0
  2  1  1  0  0  0  0
  2  4  1  0  0  0  0
  3 23  1  0  0  0  0
  4  6  1  0  0  0  0
  5  4  1  0  0  0  0
  7 15  2  0  0  0  0
  7  4  1  0  0  0  0
  8  7  1  0  0  0  0
  9  8  1  0  0  0  0
 10 12  1  0  0  0  0
 10  8  2  0  0  0  0
 11 10  1  0  0  0  0
 12 14  1  0  0  0  0
 13 12  1  0  0  0  0
 14 15  1  0  0  0  0
 14 16  2  0  0  0  0
 16  3  1  0  0  0  0
 17 16  1  0  0  0  0
 17 19  2  0  0  0  0
 18 17  1  0  0  0  0
 19 21  1  0  0  0  0
 20 19  1  0  0  0  0
 21 23  2  0  0  0  0
 21 22  1  0  0  0  0
 23 24  1  0  0  0  0
 25 34  1  0  0  0  0
 26 25  2  0  0  0  0
 26 28  1  0  0  0  0
 27 26  1  0  0  0  0
 28 30  2  0  0  0  0
 29 28  1  0  0  0  0
 30 32  1  0  0  0  0
 30 31  1  0  0  0  0
 32 33  1  0  0  0  0
 34 32  2  0  0  0  0
 35 34  1  0  0  0  0
 36 45  1  0  0  0  0
 36  1  1  0  0  0  0
 37 36  2  0  0  0  0
 38 37  1  0  0  0  0
 39 41  2  0  0  0  0
 39 37  1  0  0  0  0
 40 39  1  0  0  0  0
 41 43  1  0  0  0  0
 42 41  1  0  0  0  0
 43 44  1  0  0  0  0
 43 45  2  0  0  0  0
 45 46  1  0  0  0  0
M  END
