1,3,4
 OpenBabel05122313063D

 43 43  0  0  0  0  0  0  0  0999 V2000
   -1.1927    0.8622   -0.0466 P   0  0  0  0  0  0  0  0  0  0  0  0
   -0.3911    2.3780    0.0713 O   0  0  0  0  0  0  0  0  0  0  0  0
    2.0657   -1.6975    0.0351 N   0  0  0  0  0  0  0  0  0  0  0  0
    1.4318    0.8583   -0.1172 C   0  0  0  0  0  3  0  0  0  0  0  0
    0.9767    2.1886    0.0141 C   0  0  0  0  0  0  0  0  0  0  0  0
    1.8683    3.2681    0.0761 C   0  0  0  0  0  0  0  0  0  0  0  0
    1.4861    4.2939    0.1804 H   0  0  0  0  0  0  0  0  0  0  0  0
    3.2498    3.0014    0.0064 C   0  0  0  0  0  0  0  0  0  0  0  0
    3.9609    3.8394    0.0630 H   0  0  0  0  0  0  0  0  0  0  0  0
    3.7321    1.6880   -0.1359 C   0  0  0  0  0  0  0  0  0  0  0  0
    4.8159    1.5015   -0.1977 H   0  0  0  0  0  0  0  0  0  0  0  0
    2.8186    0.6196   -0.2062 C   0  0  0  0  0  0  0  0  0  0  0  0
    3.1701   -0.8205   -0.4649 C   0  0  0  0  0  0  0  0  0  0  0  0
    3.2457   -0.9910   -1.5601 H   0  0  0  0  0  0  0  0  0  0  0  0
    4.1450   -1.1319   -0.0220 H   0  0  0  0  0  0  0  0  0  0  0  0
    2.0418   -2.9830   -0.6832 C   0  0  0  0  0  0  0  0  0  0  0  0
    2.9939   -3.5421   -0.5297 H   0  0  0  0  0  0  0  0  0  0  0  0
    1.8986   -2.7987   -1.7648 H   0  0  0  0  0  0  0  0  0  0  0  0
    1.1872   -3.5840   -0.3198 H   0  0  0  0  0  0  0  0  0  0  0  0
    2.2045   -1.9286    1.4889 C   0  0  0  0  0  0  0  0  0  0  0  0
    3.1235   -2.5219    1.7073 H   0  0  0  0  0  0  0  0  0  0  0  0
    1.3153   -2.4776    1.8528 H   0  0  0  0  0  0  0  0  0  0  0  0
    2.2687   -0.9562    2.0119 H   0  0  0  0  0  0  0  0  0  0  0  0
   -2.2240    1.1580   -1.5616 C   0  0  0  0  0  0  0  0  0  0  0  0
   -2.5943    2.1994   -1.4321 H   0  0  0  0  0  0  0  0  0  0  0  0
   -3.4028    0.1837   -1.6574 C   0  0  0  0  0  0  0  0  0  0  0  0
   -3.9537    0.3562   -2.6050 H   0  0  0  0  0  0  0  0  0  0  0  0
   -4.1223    0.3097   -0.8242 H   0  0  0  0  0  0  0  0  0  0  0  0
   -3.0504   -0.8679   -1.6434 H   0  0  0  0  0  0  0  0  0  0  0  0
   -1.3092    1.0997   -2.7913 C   0  0  0  0  0  0  0  0  0  0  0  0
   -1.8748    1.3866   -3.7017 H   0  0  0  0  0  0  0  0  0  0  0  0
   -0.9188    0.0716   -2.9358 H   0  0  0  0  0  0  0  0  0  0  0  0
   -0.4433    1.7838   -2.6933 H   0  0  0  0  0  0  0  0  0  0  0  0
   -2.3098    0.9388    1.4299 C   0  0  0  0  0  0  0  0  0  0  0  0
   -2.9648    0.0496    1.2958 H   0  0  0  0  0  0  0  0  0  0  0  0
   -3.1402    2.2260    1.4664 C   0  0  0  0  0  0  0  0  0  0  0  0
   -3.7713    2.2416    2.3789 H   0  0  0  0  0  0  0  0  0  0  0  0
   -3.8157    2.3201    0.5931 H   0  0  0  0  0  0  0  0  0  0  0  0
   -2.4812    3.1168    1.4903 H   0  0  0  0  0  0  0  0  0  0  0  0
   -1.4659    0.7357    2.6946 C   0  0  0  0  0  0  0  0  0  0  0  0
   -2.1149    0.7599    3.5940 H   0  0  0  0  0  0  0  0  0  0  0  0
   -0.7050    1.5360    2.7993 H   0  0  0  0  0  0  0  0  0  0  0  0
   -0.9457   -0.2420    2.6673 H   0  0  0  0  0  0  0  0  0  0  0  0
  1  2  1  0  0  0  0
  1 34  1  0  0  0  0
  3 20  1  0  0  0  0
  4  5  1  0  0  0  0
  5  2  1  0  0  0  0
  5  6  2  0  0  0  0
  6  7  1  0  0  0  0
  8  9  1  0  0  0  0
  8  6  1  0  0  0  0
 10  8  2  0  0  0  0
 11 10  1  0  0  0  0
 12 10  1  0  0  0  0
 12  4  2  0  0  0  0
 13 12  1  0  0  0  0
 13 15  1  0  0  0  0
 13  3  1  0  0  0  0
 14 13  1  0  0  0  0
 16 17  1  0  0  0  0
 16 19  1  0  0  0  0
 16  3  1  0  0  0  0
 18 16  1  0  0  0  0
 20 21  1  0  0  0  0
 20 22  1  0  0  0  0
 20 23  1  0  0  0  0
 24 25  1  0  0  0  0
 24  1  1  0  0  0  0
 26 29  1  0  0  0  0
 26 24  1  0  0  0  0
 26 28  1  0  0  0  0
 27 26  1  0  0  0  0
 30 33  1  0  0  0  0
 30 24  1  0  0  0  0
 31 30  1  0  0  0  0
 32 30  1  0  0  0  0
 34 36  1  0  0  0  0
 34 40  1  0  0  0  0
 35 34  1  0  0  0  0
 36 39  1  0  0  0  0
 36 37  1  0  0  0  0
 38 36  1  0  0  0  0
 40 42  1  0  0  0  0
 40 41  1  0  0  0  0
 43 40  1  0  0  0  0
M  END
