1,2,3
 OpenBabel05122313063D

 61 62  0  0  1  0  0  0  0  0999 V2000
    2.1404   -0.1695   -0.1620 P   0  0  0  0  0  0  0  0  0  0  0  0
   -2.2160    0.2926   -0.1821 N   0  0  0  0  0  2  0  0  0  0  0  0
    0.0233    1.7302   -0.3555 C   0  0  0  0  0  3  0  0  0  0  0  0
    1.2498    2.3980   -0.6091 C   0  0  0  0  0  0  0  0  0  0  0  0
    1.2588    3.7998   -0.6561 C   0  0  0  0  0  0  0  0  0  0  0  0
    2.2076    4.3317   -0.8345 H   0  0  0  0  0  0  0  0  0  0  0  0
    0.0666    4.5372   -0.4926 C   0  0  0  0  0  0  0  0  0  0  0  0
    0.0948    5.6361   -0.5283 H   0  0  0  0  0  0  0  0  0  0  0  0
   -1.1524    3.8763   -0.3089 C   0  0  0  0  0  0  0  0  0  0  0  0
   -2.0784    4.4639   -0.2155 H   0  0  0  0  0  0  0  0  0  0  0  0
   -1.1936    2.4649   -0.2512 C   0  0  0  0  0  0  0  0  0  0  0  0
   -2.4098    1.6595   -0.1315 C   0  0  1  0  0  3  0  0  0  0  0  0
   -3.7062    2.1840    0.0082 C   0  0  0  0  0  0  0  0  0  0  0  0
   -3.8486    3.2714    0.0603 H   0  0  0  0  0  0  0  0  0  0  0  0
   -4.7923    1.3118    0.0890 C   0  0  0  0  0  0  0  0  0  0  0  0
   -5.8139    1.7030    0.2065 H   0  0  0  0  0  0  0  0  0  0  0  0
   -4.5683   -0.0677    0.0207 C   0  0  0  0  0  0  0  0  0  0  0  0
   -5.4122   -0.7668    0.0849 H   0  0  0  0  0  0  0  0  0  0  0  0
   -3.2597   -0.5704   -0.1168 C   0  0  0  0  0  0  0  0  0  0  0  0
   -3.0450   -2.0956   -0.1586 C   0  0  0  0  0  0  0  0  0  0  0  0
   -3.9844   -2.7087   -1.2241 C   0  0  0  0  0  0  0  0  0  0  0  0
   -3.7820   -2.2870   -2.2296 H   0  0  0  0  0  0  0  0  0  0  0  0
   -5.0538   -2.5414   -0.9911 H   0  0  0  0  0  0  0  0  0  0  0  0
   -3.8272   -3.8053   -1.2728 H   0  0  0  0  0  0  0  0  0  0  0  0
   -3.3850   -2.6684    1.2389 C   0  0  0  0  0  0  0  0  0  0  0  0
   -3.2630   -3.7714    1.2327 H   0  0  0  0  0  0  0  0  0  0  0  0
   -4.4314   -2.4434    1.5263 H   0  0  0  0  0  0  0  0  0  0  0  0
   -2.7045   -2.2363    1.9996 H   0  0  0  0  0  0  0  0  0  0  0  0
   -1.6086   -2.5140   -0.5245 C   0  0  0  0  0  0  0  0  0  0  0  0
    2.4662    1.5381   -0.8720 C   0  0  0  0  0  0  0  0  0  0  0  0
    3.4023    1.9822   -0.4789 H   0  0  0  0  0  0  0  0  0  0  0  0
    2.6041    1.4174   -1.9668 H   0  0  0  0  0  0  0  0  0  0  0  0
    2.9212   -1.4447   -1.3642 C   0  0  0  0  0  0  0  0  0  0  0  0
    2.4979   -1.0792   -2.7996 C   0  0  0  0  0  0  0  0  0  0  0  0
    2.7653   -1.9189   -3.4753 H   0  0  0  0  0  0  0  0  0  0  0  0
    3.0218   -0.1780   -3.1761 H   0  0  0  0  0  0  0  0  0  0  0  0
    1.4065   -0.9071   -2.8778 H   0  0  0  0  0  0  0  0  0  0  0  0
    4.4541   -1.5212   -1.3142 C   0  0  0  0  0  0  0  0  0  0  0  0
    4.8210   -1.9629   -0.3692 H   0  0  0  0  0  0  0  0  0  0  0  0
    4.9315   -0.5301   -1.4475 H   0  0  0  0  0  0  0  0  0  0  0  0
    4.8089   -2.1746   -2.1399 H   0  0  0  0  0  0  0  0  0  0  0  0
    2.3125   -2.8142   -1.0064 C   0  0  0  0  0  0  0  0  0  0  0  0
    1.2096   -2.7975   -1.1065 H   0  0  0  0  0  0  0  0  0  0  0  0
    2.5531   -3.1255    0.0281 H   0  0  0  0  0  0  0  0  0  0  0  0
    2.7100   -3.5883   -1.6967 H   0  0  0  0  0  0  0  0  0  0  0  0
    3.0660   -0.0971    1.5154 C   0  0  0  0  0  0  0  0  0  0  0  0
    2.3986    1.0539    2.2995 C   0  0  0  0  0  0  0  0  0  0  0  0
    1.3136    0.8827    2.4353 H   0  0  0  0  0  0  0  0  0  0  0  0
    2.5542    2.0381    1.8149 H   0  0  0  0  0  0  0  0  0  0  0  0
    2.8662    1.1010    3.3062 H   0  0  0  0  0  0  0  0  0  0  0  0
    4.5682    0.2192    1.3945 C   0  0  0  0  0  0  0  0  0  0  0  0
    4.7761    1.0944    0.7464 H   0  0  0  0  0  0  0  0  0  0  0  0
    5.1662   -0.6327    1.0279 H   0  0  0  0  0  0  0  0  0  0  0  0
    4.9483    0.4734    2.4065 H   0  0  0  0  0  0  0  0  0  0  0  0
    2.8635   -1.4231    2.2676 C   0  0  0  0  0  0  0  0  0  0  0  0
    3.2964   -1.3294    3.2866 H   0  0  0  0  0  0  0  0  0  0  0  0
    3.3808   -2.2677    1.7692 H   0  0  0  0  0  0  0  0  0  0  0  0
    1.7852   -1.6549    2.3790 H   0  0  0  0  0  0  0  0  0  0  0  0
   -1.5479   -3.6207   -0.5756 H   0  0  0  0  0  0  0  0  0  0  0  0
   -0.8805   -2.2434    0.2866 H   0  0  0  0  0  0  0  0  0  0  0  0
   -1.2930   -2.1219   -1.5108 H   0  0  0  0  0  0  0  0  0  0  0  0
  1 46  1  0  0  0  0
  2 12  1  0  0  0  0
  2 19  1  0  0  0  0
  3 11  1  0  0  0  0
  4  3  2  0  0  0  0
  5  4  1  0  0  0  0
  5  7  2  0  0  0  0
  6  5  1  0  0  0  0
  7  9  1  0  0  0  0
  8  7  1  0  0  0  0
  9 11  2  0  0  0  0
  9 10  1  0  0  0  0
 12 11  1  6  0  0  0
 12 13  1  0  0  0  0
 13 14  1  0  0  0  0
 13 15  2  0  0  0  0
 15 16  1  0  0  0  0
 17 18  1  0  0  0  0
 17 15  1  0  0  0  0
 19 17  2  0  0  0  0
 20 19  1  0  0  0  0
 20 25  1  0  0  0  0
 21 23  1  0  0  0  0
 21 20  1  0  0  0  0
 22 21  1  0  0  0  0
 24 21  1  0  0  0  0
 25 27  1  0  0  0  0
 25 28  1  0  0  0  0
 26 25  1  0  0  0  0
 29 20  1  0  0  0  0
 29 60  1  0  0  0  0
 30  4  1  0  0  0  0
 30 31  1  0  0  0  0
 30  1  1  0  0  0  0
 32 30  1  0  0  0  0
 33 38  1  0  0  0  0
 33 42  1  0  0  0  0
 33  1  1  0  0  0  0
 34 33  1  0  0  0  0
 35 34  1  0  0  0  0
 36 34  1  0  0  0  0
 37 34  1  0  0  0  0
 38 39  1  0  0  0  0
 40 38  1  0  0  0  0
 41 38  1  0  0  0  0
 42 44  1  0  0  0  0
 43 42  1  0  0  0  0
 45 42  1  0  0  0  0
 46 55  1  0  0  0  0
 46 47  1  0  0  0  0
 47 48  1  0  0  0  0
 47 50  1  0  0  0  0
 49 47  1  0  0  0  0
 51 46  1  0  0  0  0
 51 54  1  0  0  0  0
 52 51  1  0  0  0  0
 53 51  1  0  0  0  0
 55 58  1  0  0  0  0
 55 56  1  0  0  0  0
 57 55  1  0  0  0  0
 59 29  1  0  0  0  0
 61 29  1  0  0  0  0
M  END
