1,2,23
 OpenBabel05122313063D

 52 53  0  0  1  0  0  0  0  0999 V2000
    1.8851    0.1686   -0.1765 P   0  0  0  0  0  0  0  0  0  0  0  0
   -2.4504   -0.5178   -0.1322 N   0  0  0  0  0  2  0  0  0  0  0  0
   -2.6210   -2.9375   -0.4874 C   0  0  0  0  0  0  0  0  0  0  0  0
   -1.9687   -2.8697   -1.3820 H   0  0  0  0  0  0  0  0  0  0  0  0
   -3.3872   -3.7169   -0.6549 H   0  0  0  0  0  0  0  0  0  0  0  0
   -1.9628   -3.2269    0.3576 H   0  0  0  0  0  0  0  0  0  0  0  0
   -3.2572   -1.6086   -0.2127 C   0  0  2  0  0  3  0  0  0  0  0  0
   -4.6486   -1.4757   -0.0611 C   0  0  0  0  0  0  0  0  0  0  0  0
   -5.2791   -2.3741   -0.1156 H   0  0  0  0  0  0  0  0  0  0  0  0
   -5.2101   -0.2086    0.1501 C   0  0  0  0  0  0  0  0  0  0  0  0
   -6.2968   -0.0954    0.2810 H   0  0  0  0  0  0  0  0  0  0  0  0
   -4.3768    0.9103    0.1657 C   0  0  0  0  0  0  0  0  0  0  0  0
   -4.7894    1.9201    0.2914 H   0  0  0  0  0  0  0  0  0  0  0  0
   -2.9882    0.7434    0.0006 C   0  0  0  0  0  0  0  0  0  0  0  0
   -2.0203    1.8374   -0.0957 C   0  0  0  0  0  0  0  0  0  0  0  0
   -2.3267    3.2136   -0.0005 C   0  0  0  0  0  0  0  0  0  0  0  0
   -3.3574    3.5420    0.2039 H   0  0  0  0  0  0  0  0  0  0  0  0
   -1.3186    4.1697   -0.1632 C   0  0  0  0  0  0  0  0  0  0  0  0
   -1.5593    5.2399   -0.0832 H   0  0  0  0  0  0  0  0  0  0  0  0
    0.0060    3.7681   -0.4416 C   0  0  0  0  0  0  0  0  0  0  0  0
    0.7869    4.5323   -0.5868 H   0  0  0  0  0  0  0  0  0  0  0  0
    0.3376    2.4092   -0.5438 C   0  0  0  0  0  0  0  0  0  0  0  0
   -0.6752    1.4335   -0.3322 C   0  0  0  0  0  3  0  0  0  0  0  0
    1.7194    1.8990   -0.8887 C   0  0  0  0  0  0  0  0  0  0  0  0
    2.5296    2.5793   -0.5642 H   0  0  0  0  0  0  0  0  0  0  0  0
    1.8092    1.7930   -1.9904 H   0  0  0  0  0  0  0  0  0  0  0  0
    2.6963    0.4613    1.5356 C   0  0  0  0  0  0  0  0  0  0  0  0
    3.8521    1.4769    1.4898 C   0  0  0  0  0  0  0  0  0  0  0  0
    4.2811    1.5631    2.5107 H   0  0  0  0  0  0  0  0  0  0  0  0
    3.5115    2.4907    1.2012 H   0  0  0  0  0  0  0  0  0  0  0  0
    4.6730    1.1780    0.8127 H   0  0  0  0  0  0  0  0  0  0  0  0
    1.5769    1.0289    2.4339 C   0  0  0  0  0  0  0  0  0  0  0  0
    0.7617    0.2931    2.5705 H   0  0  0  0  0  0  0  0  0  0  0  0
    1.1436    1.9637    2.0255 H   0  0  0  0  0  0  0  0  0  0  0  0
    2.0072    1.2615    3.4313 H   0  0  0  0  0  0  0  0  0  0  0  0
    3.1879   -0.8711    2.1276 C   0  0  0  0  0  0  0  0  0  0  0  0
    3.4872   -0.7007    3.1839 H   0  0  0  0  0  0  0  0  0  0  0  0
    4.0770   -1.2641    1.5962 H   0  0  0  0  0  0  0  0  0  0  0  0
    2.3844   -1.6345    2.1201 H   0  0  0  0  0  0  0  0  0  0  0  0
    3.0208   -0.8186   -1.3501 C   0  0  0  0  0  0  0  0  0  0  0  0
    4.4873   -0.3641   -1.3206 C   0  0  0  0  0  0  0  0  0  0  0  0
    5.0584   -0.9223   -2.0932 H   0  0  0  0  0  0  0  0  0  0  0  0
    4.9704   -0.5679   -0.3462 H   0  0  0  0  0  0  0  0  0  0  0  0
    4.5955    0.7162   -1.5471 H   0  0  0  0  0  0  0  0  0  0  0  0
    2.8966   -2.3050   -0.9619 C   0  0  0  0  0  0  0  0  0  0  0  0
    1.8363   -2.6282   -0.9603 H   0  0  0  0  0  0  0  0  0  0  0  0
    3.3082   -2.5199    0.0406 H   0  0  0  0  0  0  0  0  0  0  0  0
    3.4524   -2.9221   -1.6993 H   0  0  0  0  0  0  0  0  0  0  0  0
    2.4679   -0.6515   -2.7788 C   0  0  0  0  0  0  0  0  0  0  0  0
    3.0059   -1.3499   -3.4537 H   0  0  0  0  0  0  0  0  0  0  0  0
    2.6179    0.3709   -3.1787 H   0  0  0  0  0  0  0  0  0  0  0  0
    1.3875   -0.8930   -2.8271 H   0  0  0  0  0  0  0  0  0  0  0  0
  1 27  1  0  0  0  0
  2 14  1  0  0  0  0
  3  6  1  0  0  0  0
  4  3  1  0  0  0  0
  5  3  1  0  0  0  0
  7  3  1  6  0  0  0
  7  2  1  0  0  0  0
  7  8  1  0  0  0  0
  8 10  2  0  0  0  0
  9  8  1  0  0  0  0
 10 12  1  0  0  0  0
 10 11  1  0  0  0  0
 12 13  1  0  0  0  0
 14 12  2  0  0  0  0
 15 16  1  0  0  0  0
 15 14  1  0  0  0  0
 16 17  1  0  0  0  0
 18 19  1  0  0  0  0
 18 16  2  0  0  0  0
 20 18  1  0  0  0  0
 21 20  1  0  0  0  0
 22 20  2  0  0  0  0
 22 23  1  0  0  0  0
 23 15  2  0  0  0  0
 24 25  1  0  0  0  0
 24 22  1  0  0  0  0
 24  1  1  0  0  0  0
 26 24  1  0  0  0  0
 27 36  1  0  0  0  0
 27 32  1  0  0  0  0
 28 27  1  0  0  0  0
 28 29  1  0  0  0  0
 30 28  1  0  0  0  0
 31 28  1  0  0  0  0
 32 33  1  0  0  0  0
 32 35  1  0  0  0  0
 34 32  1  0  0  0  0
 36 37  1  0  0  0  0
 38 36  1  0  0  0  0
 39 36  1  0  0  0  0
 40 41  1  0  0  0  0
 40 45  1  0  0  0  0
 40  1  1  0  0  0  0
 41 43  1  0  0  0  0
 42 41  1  0  0  0  0
 44 41  1  0  0  0  0
 45 46  1  0  0  0  0
 45 47  1  0  0  0  0
 48 45  1  0  0  0  0
 49 40  1  0  0  0  0
 50 49  1  0  0  0  0
 51 49  1  0  0  0  0
 52 49  1  0  0  0  0
M  END
