1,72,74
q = -1.0, confidence = 0.05

 74 77  0  0  1  0  0  0  0  0999 V2000
   -1.5855   -0.2173    1.7141 C   0  0  0  0  0  3  0  0  0  0  0  0
   -0.4767    0.0683    2.5459 C   0  0  0  0  0  0  0  0  0  0  0  0
   -0.6209   -0.0267    3.9449 C   0  0  0  0  0  0  0  0  0  0  0  0
    0.2325    0.2088    4.6014 H   0  0  0  0  0  0  0  0  0  0  0  0
   -1.8444   -0.4248    4.5058 C   0  0  0  0  0  0  0  0  0  0  0  0
   -1.9476   -0.4989    5.5989 H   0  0  0  0  0  0  0  0  0  0  0  0
   -2.9367   -0.7372    3.6776 C   0  0  0  0  0  0  0  0  0  0  0  0
   -3.8886   -1.0666    4.1252 H   0  0  0  0  0  0  0  0  0  0  0  0
   -2.8134   -0.6323    2.2814 C   0  0  0  0  0  0  0  0  0  0  0  0
   -3.9506   -0.9213    1.3339 C   0  0  0  0  0  0  0  0  0  0  0  0
   -4.5953   -0.0220    1.2732 H   0  0  0  0  0  0  0  0  0  0  0  0
   -4.5998   -1.7440    1.7100 H   0  0  0  0  0  0  0  0  0  0  0  0
   -3.2815   -2.7232   -0.2195 C   0  0  0  0  0  0  0  0  0  0  0  0
   -4.2537   -3.1968    0.0587 H   0  0  0  0  0  0  0  0  0  0  0  0
   -2.2203   -3.2728    0.7387 C   0  0  0  0  0  0  0  0  0  0  0  0
   -2.1688   -4.3730    0.6189 H   0  0  0  0  0  0  0  0  0  0  0  0
   -2.4334   -3.0544    1.8011 H   0  0  0  0  0  0  0  0  0  0  0  0
   -1.2250   -2.8423    0.5027 H   0  0  0  0  0  0  0  0  0  0  0  0
   -2.9377   -3.1215   -1.6568 C   0  0  0  0  0  0  0  0  0  0  0  0
   -3.7784   -2.9793   -2.3617 H   0  0  0  0  0  0  0  0  0  0  0  0
   -2.6756   -4.1972   -1.6752 H   0  0  0  0  0  0  0  0  0  0  0  0
   -2.0757   -2.5376   -2.0367 H   0  0  0  0  0  0  0  0  0  0  0  0
   -4.4135   -0.6644   -1.1034 C   0  0  0  0  0  0  0  0  0  0  0  0
   -3.9354   -0.9279   -2.0649 H   0  0  0  0  0  0  0  0  0  0  0  0
   -5.8240   -1.2630   -1.0511 C   0  0  0  0  0  0  0  0  0  0  0  0
   -5.8272   -2.3643   -1.1678 H   0  0  0  0  0  0  0  0  0  0  0  0
   -6.4303   -0.8440   -1.8782 H   0  0  0  0  0  0  0  0  0  0  0  0
   -6.3452   -1.0142   -0.1039 H   0  0  0  0  0  0  0  0  0  0  0  0
   -4.4528    0.8648   -1.0648 C   0  0  0  0  0  0  0  0  0  0  0  0
   -4.9740    1.2695   -0.1735 H   0  0  0  0  0  0  0  0  0  0  0  0
   -4.9937    1.2331   -1.9586 H   0  0  0  0  0  0  0  0  0  0  0  0
   -3.4253    1.2826   -1.0953 H   0  0  0  0  0  0  0  0  0  0  0  0
    0.8404    0.4276    1.8927 C   0  0  1  0  0  0  0  0  0  0  0  0
    1.3179    1.2903    2.3975 H   0  0  0  0  0  0  0  0  0  0  0  0
    1.8583   -0.7196    1.9049 C   0  0  0  0  0  0  0  0  0  0  0  0
    1.8960   -1.1533    2.9304 H   0  0  0  0  0  0  0  0  0  0  0  0
    1.5362   -1.5458    1.2410 H   0  0  0  0  0  0  0  0  0  0  0  0
    3.2708   -0.2363    1.5774 C   0  0  0  0  0  0  0  0  0  0  0  0
    4.2537   -1.1922    0.9765 C   0  0  0  0  0  0  0  0  0  0  0  0
    3.9833   -2.5644    0.7883 C   0  0  0  0  0  0  0  0  0  0  0  0
    3.0195   -2.9891    1.1031 H   0  0  0  0  0  0  0  0  0  0  0  0
    4.9404   -3.4000    0.1975 C   0  0  0  0  0  0  0  0  0  0  0  0
    4.7222   -4.4693    0.0566 H   0  0  0  0  0  0  0  0  0  0  0  0
    6.1734   -2.8723   -0.2193 C   0  0  0  0  0  0  0  0  0  0  0  0
    6.9206   -3.5289   -0.6909 H   0  0  0  0  0  0  0  0  0  0  0  0
    6.4524   -1.5072   -0.0345 C   0  0  0  0  0  0  0  0  0  0  0  0
    7.4180   -1.0929   -0.3621 H   0  0  0  0  0  0  0  0  0  0  0  0
    5.5002   -0.6750    0.5626 C   0  0  0  0  0  0  0  0  0  0  0  0
    5.6850    0.3977    0.7189 H   0  0  0  0  0  0  0  0  0  0  0  0
    0.3451    2.7679    0.2364 C   0  0  0  0  0  0  0  0  0  0  0  0
   -0.7340    3.4876   -0.3115 C   0  0  0  0  0  0  0  0  0  0  0  0
   -1.5183    2.9433   -0.8547 H   0  0  0  0  0  0  0  0  0  0  0  0
   -0.7813    4.8832   -0.1840 C   0  0  0  0  0  0  0  0  0  0  0  0
   -1.6281    5.4401   -0.6129 H   0  0  0  0  0  0  0  0  0  0  0  0
    0.2481    5.5677    0.4813 C   0  0  0  0  0  0  0  0  0  0  0  0
    0.2089    6.6636    0.5776 H   0  0  0  0  0  0  0  0  0  0  0  0
    1.3277    4.8534    1.0249 C   0  0  0  0  0  0  0  0  0  0  0  0
    2.1370    5.3855    1.5476 H   0  0  0  0  0  0  0  0  0  0  0  0
    1.3782    3.4558    0.9112 C   0  0  0  0  0  0  0  0  0  0  0  0
    2.2233    2.8993    1.3488 H   0  0  0  0  0  0  0  0  0  0  0  0
    1.7720    0.4637   -0.9831 C   0  0  0  0  0  0  0  0  0  0  0  0
    2.8295    1.3295   -1.3224 C   0  0  0  0  0  0  0  0  0  0  0  0
    2.8409    2.3613   -0.9449 H   0  0  0  0  0  0  0  0  0  0  0  0
    3.8706    0.8734   -2.1418 C   0  0  0  0  0  0  0  0  0  0  0  0
    4.6958    1.5542   -2.3999 H   0  0  0  0  0  0  0  0  0  0  0  0
    3.8637   -0.4422   -2.6339 C   0  0  0  0  0  0  0  0  0  0  0  0
    4.6877   -0.7969   -3.2709 H   0  0  0  0  0  0  0  0  0  0  0  0
    2.7982   -1.2990   -2.3214 C   0  0  0  0  0  0  0  0  0  0  0  0
    2.7763   -2.3242   -2.7199 H   0  0  0  0  0  0  0  0  0  0  0  0
    1.7516   -0.8468   -1.5056 C   0  0  0  0  0  0  0  0  0  0  0  0
    0.8923   -1.5012   -1.2879 H   0  0  0  0  0  0  0  0  0  0  0  0
   -3.4761   -1.2303   -0.0579 N   0  0  0  0  0  0  0  0  0  0  0  0
    3.5944    0.9269    1.8171 O   0  0  0  0  0  0  0  0  0  0  0  0
    0.3840    0.9407    0.1170 P   0  0  0  0  0  0  0  0  0  0  0  0
  1  9  2  0  0  0  0
  1  2  1  0  0  0  0
  2  3  2  0  0  0  0
  3  5  1  0  0  0  0
  3  4  1  0  0  0  0
  5  6  1  0  0  0  0
  7  8  1  0  0  0  0
  7  5  2  0  0  0  0
  9  7  1  0  0  0  0
 10 12  1  0  0  0  0
 10  9  1  0  0  0  0
 11 10  1  0  0  0  0
 13 72  1  0  0  0  0
 13 14  1  0  0  0  0
 13 15  1  0  0  0  0
 15 17  1  0  0  0  0
 16 15  1  0  0  0  0
 18 15  1  0  0  0  0
 19 13  1  0  0  0  0
 20 19  1  0  0  0  0
 21 19  1  0  0  0  0
 22 19  1  0  0  0  0
 23 29  1  0  0  0  0
 23 25  1  0  0  0  0
 23 72  1  0  0  0  0
 24 23  1  0  0  0  0
 25 28  1  0  0  0  0
 26 25  1  0  0  0  0
 27 25  1  0  0  0  0
 29 30  1  0  0  0  0
 31 29  1  0  0  0  0
 32 29  1  0  0  0  0
 33 35  1  0  0  0  0
 33 34  1  1  0  0  0
 33  2  1  0  0  0  0
 35 36  1  0  0  0  0
 37 35  1  0  0  0  0
 38 73  2  0  0  0  0
 38 35  1  0  0  0  0
 39 38  1  0  0  0  0
 40 39  1  0  0  0  0
 40 41  1  0  0  0  0
 42 40  2  0  0  0  0
 43 42  1  0  0  0  0
 44 46  2  0  0  0  0
 44 42  1  0  0  0  0
 45 44  1  0  0  0  0
 46 48  1  0  0  0  0
 47 46  1  0  0  0  0
 48 49  1  0  0  0  0
 48 39  2  0  0  0  0
 50 59  1  0  0  0  0
 51 53  1  0  0  0  0
 51 50  2  0  0  0  0
 52 51  1  0  0  0  0
 53 55  2  0  0  0  0
 54 53  1  0  0  0  0
 55 56  1  0  0  0  0
 55 57  1  0  0  0  0
 57 58  1  0  0  0  0
 59 57  2  0  0  0  0
 59 60  1  0  0  0  0
 61 74  1  0  0  0  0
 62 61  1  0  0  0  0
 62 63  1  0  0  0  0
 64 62  2  0  0  0  0
 65 64  1  0  0  0  0
 66 68  2  0  0  0  0
 66 64  1  0  0  0  0
 67 66  1  0  0  0  0
 68 70  1  0  0  0  0
 69 68  1  0  0  0  0
 70 71  1  0  0  0  0
 70 61  2  0  0  0  0
 72 10  1  0  0  0  0
 74 50  1  0  0  0  0
 74 33  1  0  0  0  0
M  END
