1,2,3,4,5
q = -2.0, confidence = 0.762

 51 53  0  0  1  0  0  0  0  0999 V2000
    2.1362    0.8481   -0.8420 S   0  0  0  0  0  1  0  0  0  0  0  0
    0.7985   -2.0558   -0.7334 S   0  0  0  0  0  0  0  0  0  0  0  0
   -0.7985    2.0558   -0.7335 S   0  0  0  0  0  0  0  0  0  0  0  0
   -2.1362   -0.8481   -0.8420 S   0  0  0  0  0  1  0  0  0  0  0  0
    0.0000    0.0000    1.1008 N   0  0  0  0  0  2  0  0  0  0  0  0
    6.5184    0.7776    0.2645 O   0  0  0  0  0  0  0  0  0  0  0  0
    4.6631    1.9741   -0.2384 O   0  0  0  0  0  0  0  0  0  0  0  0
   -6.5183   -0.7777    0.2646 O   0  0  0  0  0  0  0  0  0  0  0  0
   -4.6629   -1.9741   -0.2383 O   0  0  0  0  0  0  0  0  0  0  0  0
    3.1061   -0.5251   -0.3811 C   0  0  0  0  0  0  0  0  0  0  0  0
    4.5097   -0.4323   -0.0711 C   0  0  0  0  0  0  0  0  0  0  0  0
    5.2503   -1.5964    0.2214 C   0  0  0  0  0  0  0  0  0  0  0  0
    4.6695   -2.8689    0.2120 C   0  0  0  0  0  0  0  0  0  0  0  0
    3.3041   -2.9834   -0.0894 C   0  0  0  0  0  0  0  0  0  0  0  0
    2.5457   -1.8357   -0.3456 C   0  0  0  0  0  0  0  0  0  0  0  0
    0.1197   -2.4152    0.9482 C   0  0  0  0  0  0  0  0  0  0  0  0
    5.1886    0.8910   -0.0364 C   0  0  0  0  0  0  0  0  0  0  0  0
    7.2299    2.0140    0.3117 C   0  0  0  0  0  0  0  0  0  0  0  0
   -3.1061    0.5251   -0.3811 C   0  0  0  0  0  0  0  0  0  0  0  0
   -4.5097    0.4323   -0.0711 C   0  0  0  0  0  0  0  0  0  0  0  0
   -5.2503    1.5964    0.2214 C   0  0  0  0  0  0  0  0  0  0  0  0
   -4.6695    2.8689    0.2119 C   0  0  0  0  0  0  0  0  0  0  0  0
   -3.3042    2.9835   -0.0895 C   0  0  0  0  0  0  0  0  0  0  0  0
   -2.5457    1.8357   -0.3457 C   0  0  0  0  0  0  0  0  0  0  0  0
   -0.1197    2.4153    0.9480 C   0  0  0  0  0  0  0  0  0  0  0  0
   -5.1885   -0.8911   -0.0363 C   0  0  0  0  0  0  0  0  0  0  0  0
   -7.2298   -2.0142    0.3118 C   0  0  0  0  0  0  0  0  0  0  0  0
    0.0968   -1.1705    1.7818 C   0  0  2  0  0  3  0  0  0  0  0  0
    0.1194   -1.2003    3.1832 C   0  0  0  0  0  0  0  0  0  0  0  0
    0.0000    0.0001    3.8947 C   0  0  0  0  0  0  0  0  0  0  0  0
   -0.1194    1.2005    3.1831 C   0  0  0  0  0  0  0  0  0  0  0  0
   -0.0967    1.1706    1.7817 C   0  0  0  0  0  0  0  0  0  0  0  0
    6.3167   -1.4764    0.4542 H   0  0  0  0  0  0  0  0  0  0  0  0
    5.2714   -3.7630    0.4280 H   0  0  0  0  0  0  0  0  0  0  0  0
    2.8185   -3.9719   -0.1256 H   0  0  0  0  0  0  0  0  0  0  0  0
   -0.9220   -2.7460    0.7435 H   0  0  0  0  0  0  0  0  0  0  0  0
    0.6865   -3.2415    1.4187 H   0  0  0  0  0  0  0  0  0  0  0  0
    7.1731    2.5444   -0.6610 H   0  0  0  0  0  0  0  0  0  0  0  0
    6.8123    2.6863    1.0894 H   0  0  0  0  0  0  0  0  0  0  0  0
    8.2780    1.7570    0.5492 H   0  0  0  0  0  0  0  0  0  0  0  0
   -6.3167    1.4764    0.4542 H   0  0  0  0  0  0  0  0  0  0  0  0
   -5.2714    3.7630    0.4279 H   0  0  0  0  0  0  0  0  0  0  0  0
   -2.8185    3.9719   -0.1258 H   0  0  0  0  0  0  0  0  0  0  0  0
   -0.6865    3.2416    1.4185 H   0  0  0  0  0  0  0  0  0  0  0  0
    0.9220    2.7461    0.7433 H   0  0  0  0  0  0  0  0  0  0  0  0
   -6.8122   -2.6864    1.0895 H   0  0  0  0  0  0  0  0  0  0  0  0
   -8.2779   -1.7572    0.5492 H   0  0  0  0  0  0  0  0  0  0  0  0
   -7.1728   -2.5446   -0.6608 H   0  0  0  0  0  0  0  0  0  0  0  0
    0.2126   -2.1637    3.7041 H   0  0  0  0  0  0  0  0  0  0  0  0
    0.0000    0.0001    4.9945 H   0  0  0  0  0  0  0  0  0  0  0  0
   -0.2126    2.1640    3.7040 H   0  0  0  0  0  0  0  0  0  0  0  0
  1 10  1  0  0  0  0
  2 15  1  0  0  0  0
  2 16  1  0  0  0  0
  3 24  1  0  0  0  0
  3 25  1  0  0  0  0
  4 19  1  0  0  0  0
  5 32  1  0  0  0  0
  5 28  1  0  0  0  0
  6 18  1  0  0  0  0
  7 17  2  0  0  0  0
  8 27  1  0  0  0  0
  9 26  2  0  0  0  0
 10 15  2  0  0  0  0
 10 11  1  0  0  0  0
 11 17  1  0  0  0  0
 11 12  2  0  0  0  0
 12 33  1  0  0  0  0
 13 12  1  0  0  0  0
 13 34  1  0  0  0  0
 14 13  2  0  0  0  0
 15 14  1  0  0  0  0
 16 37  1  0  0  0  0
 17  6  1  0  0  0  0
 18 40  1  0  0  0  0
 18 39  1  0  0  0  0
 19 24  2  0  0  0  0
 19 20  1  0  0  0  0
 20 26  1  0  0  0  0
 20 21  2  0  0  0  0
 21 41  1  0  0  0  0
 22 21  1  0  0  0  0
 22 42  1  0  0  0  0
 23 22  2  0  0  0  0
 24 23  1  0  0  0  0
 25 44  1  0  0  0  0
 25 32  1  0  0  0  0
 26  8  1  0  0  0  0
 27 47  1  0  0  0  0
 27 46  1  0  0  0  0
 28 16  1  1  0  0  0
 28 29  1  0  0  0  0
 29 49  1  0  0  0  0
 29 30  2  0  0  0  0
 30 50  1  0  0  0  0
 31 51  1  0  0  0  0
 31 30  1  0  0  0  0
 32 31  2  0  0  0  0
 35 14  1  0  0  0  0
 36 16  1  0  0  0  0
 38 18  1  0  0  0  0
 43 23  1  0  0  0  0
 45 25  1  0  0  0  0
 48 27  1  0  0  0  0
M  END
