1,2,3,4,17
q = -2.0, confidence = 0.838

 38 39  0  0  0  0  0  0  0  0999 V2000
    1.5310   -0.0706   -1.6584 S   0  0  0  0  0  1  0  0  0  0  0  0
    1.6078   -0.1281    1.5334 S   0  0  0  0  0  0  0  0  0  0  0  0
   -1.6182   -0.3901   -1.4566 S   0  0  0  0  0  0  0  0  0  0  0  0
   -1.5641   -0.3445    1.7159 S   0  0  0  0  0  1  0  0  0  0  0  0
    3.1427    0.0292    0.5976 C   0  0  0  0  0  0  0  0  0  0  0  0
    4.3638    0.1697    1.2785 C   0  0  0  0  0  0  0  0  0  0  0  0
    5.5579    0.2860    0.5556 C   0  0  0  0  0  0  0  0  0  0  0  0
    5.5087    0.2732   -0.8543 C   0  0  0  0  0  0  0  0  0  0  0  0
    4.2921    0.1524   -1.5305 C   0  0  0  0  0  0  0  0  0  0  0  0
    3.0676    0.0328   -0.8195 C   0  0  0  0  0  0  0  0  0  0  0  0
   -3.1536   -0.1340   -0.5480 C   0  0  0  0  0  0  0  0  0  0  0  0
   -4.3589    0.0701   -1.2389 C   0  0  0  0  0  0  0  0  0  0  0  0
   -5.5558    0.2135   -0.5231 C   0  0  0  0  0  0  0  0  0  0  0  0
   -5.5254    0.1415    0.8842 C   0  0  0  0  0  0  0  0  0  0  0  0
   -4.3225   -0.0550    1.5705 C   0  0  0  0  0  0  0  0  0  0  0  0
   -3.0957   -0.1844    0.8696 C   0  0  0  0  0  0  0  0  0  0  0  0
    0.0799   -2.2239    0.0897 N   0  0  0  0  0  0  0  0  0  0  0  0
    1.6791   -1.9493    1.8981 C   0  0  0  0  0  0  0  0  0  0  0  0
    1.3599   -2.7115    0.6250 C   0  0  0  0  0  0  0  0  0  0  0  0
   -1.6714   -2.2643   -1.6006 C   0  0  0  0  0  0  0  0  0  0  0  0
   -0.3145   -2.8121   -1.1981 C   0  0  0  0  0  0  0  0  0  0  0  0
   -0.6685   -2.3825    0.7941 H   0  0  0  0  0  0  0  0  0  0  0  0
    4.3686    0.1877    2.3803 H   0  0  0  0  0  0  0  0  0  0  0  0
    6.5175    0.3939    1.0821 H   0  0  0  0  0  0  0  0  0  0  0  0
    6.4399    0.3691   -1.4343 H   0  0  0  0  0  0  0  0  0  0  0  0
    4.2616    0.1552   -2.6309 H   0  0  0  0  0  0  0  0  0  0  0  0
   -4.3492    0.1137   -2.3395 H   0  0  0  0  0  0  0  0  0  0  0  0
   -6.5033    0.3836   -1.0549 H   0  0  0  0  0  0  0  0  0  0  0  0
   -6.4594    0.2535    1.4569 H   0  0  0  0  0  0  0  0  0  0  0  0
   -4.3065   -0.0923    2.6705 H   0  0  0  0  0  0  0  0  0  0  0  0
    0.9137   -2.1173    2.6851 H   0  0  0  0  0  0  0  0  0  0  0  0
    2.6784   -2.1948    2.3057 H   0  0  0  0  0  0  0  0  0  0  0  0
    2.1438   -2.5282   -0.1391 H   0  0  0  0  0  0  0  0  0  0  0  0
    1.3248   -3.8084    0.8245 H   0  0  0  0  0  0  0  0  0  0  0  0
   -1.9410   -2.5350   -2.6393 H   0  0  0  0  0  0  0  0  0  0  0  0
   -2.4765   -2.6038   -0.9183 H   0  0  0  0  0  0  0  0  0  0  0  0
   -0.3567   -3.9257   -1.1434 H   0  0  0  0  0  0  0  0  0  0  0  0
    0.4633   -2.5291   -1.9393 H   0  0  0  0  0  0  0  0  0  0  0  0
  1 10  1  0  0  0  0
  2 18  1  0  0  0  0
  3 11  1  0  0  0  0
  5  6  1  0  0  0  0
  5  2  1  0  0  0  0
  6 23  1  0  0  0  0
  7 24  1  0  0  0  0
  7  6  2  0  0  0  0
  8  7  1  0  0  0  0
  9  8  2  0  0  0  0
  9 10  1  0  0  0  0
 10  5  2  0  0  0  0
 11 16  1  0  0  0  0
 12 11  2  0  0  0  0
 12 13  1  0  0  0  0
 13 14  2  0  0  0  0
 14 29  1  0  0  0  0
 14 15  1  0  0  0  0
 15 30  1  0  0  0  0
 16 15  2  0  0  0  0
 16  4  1  0  0  0  0
 17 19  1  0  0  0  0
 17 22  1  0  0  0  0
 18 32  1  0  0  0  0
 18 31  1  0  0  0  0
 19 34  1  0  0  0  0
 19 18  1  0  0  0  0
 20  3  1  0  0  0  0
 20 21  1  0  0  0  0
 20 36  1  0  0  0  0
 21 37  1  0  0  0  0
 21 17  1  0  0  0  0
 25  8  1  0  0  0  0
 26  9  1  0  0  0  0
 27 12  1  0  0  0  0
 28 13  1  0  0  0  0
 33 19  1  0  0  0  0
 35 20  1  0  0  0  0
 38 21  1  0  0  0  0
M  END
