1,2,3
q = -1.0

 48 50  0  0  0  0  0  0  0  0999 V2000
   -1.1898    2.5621   -1.5767 S   0  0  0  0  0  1  0  0  0  0  0  0
    1.9643    0.2892   -0.3342 P   0  0  0  0  0  0  0  0  0  0  0  0
   -0.1246    1.9263    1.1495 N   0  0  0  0  0  2  0  0  0  0  0  0
   -0.9644    2.9724    1.1666 N   0  0  0  0  0  0  0  0  0  0  0  0
   -2.3142    4.3988    0.0385 N   0  0  0  0  0  0  0  0  0  0  0  0
   -2.4651    4.7429    0.9901 H   0  0  0  0  0  0  0  0  0  0  0  0
    2.1904   -0.1363    1.4574 C   0  0  0  0  0  0  0  0  0  0  0  0
    1.4669    0.5772    2.4719 C   0  0  0  0  0  0  0  0  0  0  0  0
    1.7651    0.2704    3.8262 C   0  0  0  0  0  0  0  0  0  0  0  0
    1.2222    0.8205    4.6102 H   0  0  0  0  0  0  0  0  0  0  0  0
    2.6978   -0.7042    4.1872 C   0  0  0  0  0  0  0  0  0  0  0  0
    2.8849   -0.9168    5.2507 H   0  0  0  0  0  0  0  0  0  0  0  0
    3.3879   -1.4053    3.1885 C   0  0  0  0  0  0  0  0  0  0  0  0
    4.1318   -2.1728    3.4503 H   0  0  0  0  0  0  0  0  0  0  0  0
    3.1364   -1.1049    1.8407 C   0  0  0  0  0  0  0  0  0  0  0  0
    3.6992   -1.6396    1.0619 H   0  0  0  0  0  0  0  0  0  0  0  0
    0.4799    1.6327    2.2772 C   0  0  0  0  0  3  0  0  0  0  0  0
    0.2226    2.2461    3.1634 H   0  0  0  0  0  0  0  0  0  0  0  0
   -1.4893    3.3135   -0.0229 C   0  0  0  0  0  0  0  0  0  0  0  0
   -3.1049    4.9390   -1.0483 C   0  0  0  0  0  0  0  0  0  0  0  0
   -3.2161    6.0310   -0.8776 H   0  0  0  0  0  0  0  0  0  0  0  0
   -2.5191    4.8092   -1.9815 H   0  0  0  0  0  0  0  0  0  0  0  0
   -4.4770    4.2756   -1.1993 C   0  0  0  0  0  0  0  0  0  0  0  0
   -4.3529    3.1931   -1.3969 H   0  0  0  0  0  0  0  0  0  0  0  0
   -5.0391    4.7247   -2.0436 H   0  0  0  0  0  0  0  0  0  0  0  0
   -5.0862    4.3905   -0.2794 H   0  0  0  0  0  0  0  0  0  0  0  0
    3.0485    1.7726   -0.4964 C   0  0  0  0  0  0  0  0  0  0  0  0
    2.5161    2.9190   -1.1169 C   0  0  0  0  0  0  0  0  0  0  0  0
    1.4718    2.9030   -1.4737 H   0  0  0  0  0  0  0  0  0  0  0  0
    3.3059    4.0728   -1.2481 C   0  0  0  0  0  0  0  0  0  0  0  0
    2.8840    4.9677   -1.7308 H   0  0  0  0  0  0  0  0  0  0  0  0
    4.6207    4.0880   -0.7586 C   0  0  0  0  0  0  0  0  0  0  0  0
    5.2372    4.9944   -0.8605 H   0  0  0  0  0  0  0  0  0  0  0  0
    5.1495    2.9477   -0.1280 C   0  0  0  0  0  0  0  0  0  0  0  0
    6.1776    2.9612    0.2655 H   0  0  0  0  0  0  0  0  0  0  0  0
    4.3652    1.7942    0.0089 C   0  0  0  0  0  0  0  0  0  0  0  0
    4.7734    0.9059    0.5158 H   0  0  0  0  0  0  0  0  0  0  0  0
    2.8666   -1.0314   -1.2390 C   0  0  0  0  0  0  0  0  0  0  0  0
    3.8517   -0.7357   -2.2050 C   0  0  0  0  0  0  0  0  0  0  0  0
    4.1812    0.3040   -2.3485 H   0  0  0  0  0  0  0  0  0  0  0  0
    4.4133   -1.7605   -2.9828 C   0  0  0  0  0  0  0  0  0  0  0  0
    5.1810   -1.5134   -3.7323 H   0  0  0  0  0  0  0  0  0  0  0  0
    4.0059   -3.0920   -2.8056 C   0  0  0  0  0  0  0  0  0  0  0  0
    4.4510   -3.8934   -3.4148 H   0  0  0  0  0  0  0  0  0  0  0  0
    3.0240   -3.3949   -1.8472 C   0  0  0  0  0  0  0  0  0  0  0  0
    2.6871   -4.4332   -1.7062 H   0  0  0  0  0  0  0  0  0  0  0  0
    2.4530   -2.3737   -1.0775 C   0  0  0  0  0  0  0  0  0  0  0  0
    1.6717   -2.6180   -0.3424 H   0  0  0  0  0  0  0  0  0  0  0  0
  1 19  1  0  0  0  0
  2  7  1  0  0  0  0
  3  4  1  0  0  0  0
  3 17  1  0  0  0  0
  5  6  1  0  0  0  0
  7 15  2  0  0  0  0
  7  8  1  0  0  0  0
  8  9  2  0  0  0  0
  9 11  1  0  0  0  0
  9 10  1  0  0  0  0
 11 12  1  0  0  0  0
 13 14  1  0  0  0  0
 13 11  2  0  0  0  0
 15 13  1  0  0  0  0
 16 15  1  0  0  0  0
 17  8  1  0  0  0  0
 17 18  1  0  0  0  0
 19  5  1  0  0  0  0
 19  4  2  0  0  0  0
 20 21  1  0  0  0  0
 20  5  1  0  0  0  0
 22 20  1  0  0  0  0
 23 20  1  0  0  0  0
 23 26  1  0  0  0  0
 24 23  1  0  0  0  0
 25 23  1  0  0  0  0
 27  2  1  0  0  0  0
 27 36  1  0  0  0  0
 28 27  2  0  0  0  0
 29 28  1  0  0  0  0
 30 28  1  0  0  0  0
 30 32  2  0  0  0  0
 31 30  1  0  0  0  0
 32 34  1  0  0  0  0
 33 32  1  0  0  0  0
 34 36  2  0  0  0  0
 34 35  1  0  0  0  0
 36 37  1  0  0  0  0
 38 47  1  0  0  0  0
 38  2  1  0  0  0  0
 39 38  2  0  0  0  0
 40 39  1  0  0  0  0
 41 43  2  0  0  0  0
 41 39  1  0  0  0  0
 42 41  1  0  0  0  0
 43 45  1  0  0  0  0
 44 43  1  0  0  0  0
 45 46  1  0  0  0  0
 45 47  2  0  0  0  0
 47 48  1  0  0  0  0
M  END
