1,2,3
q = 0.0, confidence = 1.0

 36 38  0  0  1  0  0  0  0  0999 V2000
    0.5690   -0.4617   -2.2260 S   0  0  0  0  0  1  0  0  0  0  0  0
    1.2471    0.0156   -0.4077 P   0  0  0  0  0  4  0  0  0  0  0  0
   -1.2899    1.5636    0.1663 N   0  0  0  0  0  2  0  0  0  0  0  0
    1.0466    1.6453    0.1511 N   0  0  0  0  0  0  0  0  0  0  0  0
    1.8854    2.2290    0.1173 H   0  0  0  0  0  0  0  0  0  0  0  0
   -0.1679    2.2980    0.3334 C   0  0  2  0  0  3  0  0  0  0  0  0
   -0.2183    3.6594    0.7097 C   0  0  0  0  0  0  0  0  0  0  0  0
    0.7106    4.2372    0.8264 H   0  0  0  0  0  0  0  0  0  0  0  0
   -1.4676    4.2403    0.9379 C   0  0  0  0  0  0  0  0  0  0  0  0
   -1.5326    5.2986    1.2328 H   0  0  0  0  0  0  0  0  0  0  0  0
   -2.6318    3.4637    0.7919 C   0  0  0  0  0  0  0  0  0  0  0  0
   -3.6303    3.8857    0.9714 H   0  0  0  0  0  0  0  0  0  0  0  0
   -2.4954    2.1310    0.3996 C   0  0  0  0  0  0  0  0  0  0  0  0
   -3.3552    1.4528    0.2438 H   0  0  0  0  0  0  0  0  0  0  0  0
    3.0810   -0.0550   -0.3080 C   0  0  0  0  0  0  0  0  0  0  0  0
    3.8304   -0.0556   -1.4990 C   0  0  0  0  0  0  0  0  0  0  0  0
    3.3018   -0.0313   -2.4655 H   0  0  0  0  0  0  0  0  0  0  0  0
    5.2312   -0.0998   -1.4412 C   0  0  0  0  0  0  0  0  0  0  0  0
    5.8164   -0.1009   -2.3732 H   0  0  0  0  0  0  0  0  0  0  0  0
    5.8831   -0.1498   -0.1986 C   0  0  0  0  0  0  0  0  0  0  0  0
    6.9821   -0.1900   -0.1555 H   0  0  0  0  0  0  0  0  0  0  0  0
    5.1349   -0.1593    0.9903 C   0  0  0  0  0  0  0  0  0  0  0  0
    5.6451   -0.2115    1.9640 H   0  0  0  0  0  0  0  0  0  0  0  0
    3.7340   -0.1142    0.9403 C   0  0  0  0  0  0  0  0  0  0  0  0
    3.1489   -0.1445    1.8720 H   0  0  0  0  0  0  0  0  0  0  0  0
    0.5247   -1.0151    0.9086 C   0  0  0  0  0  0  0  0  0  0  0  0
    0.0007   -2.2843    0.5690 C   0  0  0  0  0  0  0  0  0  0  0  0
    0.0700   -2.6448   -0.4679 H   0  0  0  0  0  0  0  0  0  0  0  0
   -0.6264   -3.0604    1.5538 C   0  0  0  0  0  0  0  0  0  0  0  0
   -1.0585   -4.0332    1.2786 H   0  0  0  0  0  0  0  0  0  0  0  0
   -0.7325   -2.5847    2.8688 C   0  0  0  0  0  0  0  0  0  0  0  0
   -1.2411   -3.1910    3.6332 H   0  0  0  0  0  0  0  0  0  0  0  0
   -0.2056   -1.3266    3.2087 C   0  0  0  0  0  0  0  0  0  0  0  0
   -0.2989   -0.9482    4.2378 H   0  0  0  0  0  0  0  0  0  0  0  0
    0.4224   -0.5393    2.2356 C   0  0  0  0  0  0  0  0  0  0  0  0
    0.8009    0.4614    2.4919 H   0  0  0  0  0  0  0  0  0  0  0  0
  1  2  1  0  0  0  0
  2 15  1  0  0  0  0
  2  4  1  0  0  0  0
  2 26  1  0  0  0  0
  3  6  1  0  0  0  0
  3 13  1  0  0  0  0
  5  4  1  0  0  0  0
  6  4  1  1  0  0  0
  6  7  1  0  0  0  0
  7  8  1  0  0  0  0
  7  9  2  0  0  0  0
  9 10  1  0  0  0  0
 11  9  1  0  0  0  0
 11 12  1  0  0  0  0
 13 11  2  0  0  0  0
 14 13  1  0  0  0  0
 15 24  1  0  0  0  0
 16 18  1  0  0  0  0
 16 15  2  0  0  0  0
 17 16  1  0  0  0  0
 18 20  2  0  0  0  0
 19 18  1  0  0  0  0
 20 21  1  0  0  0  0
 20 22  1  0  0  0  0
 22 23  1  0  0  0  0
 24 22  2  0  0  0  0
 24 25  1  0  0  0  0
 26 35  1  0  0  0  0
 27 26  2  0  0  0  0
 27 29  1  0  0  0  0
 28 27  1  0  0  0  0
 29 31  2  0  0  0  0
 30 29  1  0  0  0  0
 31 33  1  0  0  0  0
 31 32  1  0  0  0  0
 33 34  1  0  0  0  0
 35 36  1  0  0  0  0
 35 33  2  0  0  0  0
M  END
