1,2,6
q = -1.0, confidence = 0.008

 53 55  0  0  1  0  0  0  0  0999 V2000
   -1.1330    0.0141    0.0072 P   0  0  0  0  0  0  0  0  0  0  0  0
    2.8432   -1.8236   -1.4728 S   0  0  0  0  0  0  0  0  0  0  0  0
    1.7538    3.0993   -1.5399 O   0  0  0  0  0  0  0  0  0  0  0  0
    4.1987    0.1797    1.2584 O   0  0  0  0  0  0  0  0  0  0  0  0
    2.3049    1.3997    1.4796 O   0  0  0  0  0  0  0  0  0  0  0  0
    1.5539    0.8669   -1.0665 N   0  0  0  0  0  2  0  0  0  0  0  0
   -0.4525    2.2521   -1.6025 C   0  0  0  0  0  0  0  0  0  0  0  0
   -1.4938    1.4723   -1.0367 C   0  0  0  0  0  0  0  0  0  0  0  0
   -2.8434    1.8175   -1.2727 C   0  0  0  0  0  0  0  0  0  0  0  0
   -3.6436    1.2069   -0.8296 H   0  0  0  0  0  0  0  0  0  0  0  0
   -3.1722    2.9203   -2.0699 C   0  0  0  0  0  0  0  0  0  0  0  0
   -4.2287    3.1705   -2.2488 H   0  0  0  0  0  0  0  0  0  0  0  0
   -2.1474    3.6973   -2.6324 C   0  0  0  0  0  0  0  0  0  0  0  0
   -2.3923    4.5665   -3.2617 H   0  0  0  0  0  0  0  0  0  0  0  0
   -0.8102    3.3702   -2.3864 C   0  0  0  0  0  0  0  0  0  0  0  0
    0.0144    3.9795   -2.7827 H   0  0  0  0  0  0  0  0  0  0  0  0
    1.0406    2.0869   -1.3859 C   0  0  0  0  0  0  0  0  0  0  0  0
    2.9756    0.8702   -0.7427 C   0  0  2  0  0  0  0  0  0  0  0  0
    3.3585    1.8807   -1.0346 H   0  0  0  0  0  0  0  0  0  0  0  0
    3.7309   -0.2037   -1.5203 C   0  0  0  0  0  0  0  0  0  0  0  0
    4.7526   -0.3533   -1.1232 H   0  0  0  0  0  0  0  0  0  0  0  0
    3.7814    0.0645   -2.5924 H   0  0  0  0  0  0  0  0  0  0  0  0
    3.2388    0.7510    0.7629 C   0  0  0  0  0  0  0  0  0  0  0  0
    2.4863    1.3800    2.9010 C   0  0  0  0  0  0  0  0  0  0  0  0
    1.6386    1.9480    3.3209 H   0  0  0  0  0  0  0  0  0  0  0  0
    3.4536    1.8447    3.1788 H   0  0  0  0  0  0  0  0  0  0  0  0
    2.4716    0.3387    3.2794 H   0  0  0  0  0  0  0  0  0  0  0  0
    3.5997   -2.7079   -0.0664 C   0  0  0  0  0  0  0  0  0  0  0  0
    4.5109   -3.2283   -0.4170 H   0  0  0  0  0  0  0  0  0  0  0  0
    2.8274   -3.4344    0.2538 H   0  0  0  0  0  0  0  0  0  0  0  0
    3.8347   -2.0017    0.7495 H   0  0  0  0  0  0  0  0  0  0  0  0
   -2.6473   -1.0100   -0.0964 C   0  0  0  0  0  0  0  0  0  0  0  0
   -2.8298   -1.8042   -1.2469 C   0  0  0  0  0  0  0  0  0  0  0  0
   -2.0415   -1.8400   -2.0140 H   0  0  0  0  0  0  0  0  0  0  0  0
   -4.0022   -2.5546   -1.3977 C   0  0  0  0  0  0  0  0  0  0  0  0
   -4.1395   -3.1765   -2.2950 H   0  0  0  0  0  0  0  0  0  0  0  0
   -4.9909   -2.5276   -0.3992 C   0  0  0  0  0  0  0  0  0  0  0  0
   -5.9073   -3.1258   -0.5162 H   0  0  0  0  0  0  0  0  0  0  0  0
   -4.8059   -1.7456    0.7507 C   0  0  0  0  0  0  0  0  0  0  0  0
   -5.5757   -1.7267    1.5370 H   0  0  0  0  0  0  0  0  0  0  0  0
   -3.6361   -0.9842    0.9053 C   0  0  0  0  0  0  0  0  0  0  0  0
   -3.4919   -0.3716    1.8076 H   0  0  0  0  0  0  0  0  0  0  0  0
   -1.0551    0.5799    1.7446 C   0  0  0  0  0  0  0  0  0  0  0  0
   -1.2975    1.9151    2.1154 C   0  0  0  0  0  0  0  0  0  0  0  0
   -1.5281    2.6668    1.3456 H   0  0  0  0  0  0  0  0  0  0  0  0
   -1.2450    2.2798    3.4710 C   0  0  0  0  0  0  0  0  0  0  0  0
   -1.4354    3.3241    3.7614 H   0  0  0  0  0  0  0  0  0  0  0  0
   -0.9557    1.3167    4.4508 C   0  0  0  0  0  0  0  0  0  0  0  0
   -0.9217    1.6054    5.5124 H   0  0  0  0  0  0  0  0  0  0  0  0
   -0.7013   -0.0147    4.0758 C   0  0  0  0  0  0  0  0  0  0  0  0
   -0.4647   -0.7689    4.8417 H   0  0  0  0  0  0  0  0  0  0  0  0
   -0.7403   -0.3864    2.7253 C   0  0  0  0  0  0  0  0  0  0  0  0
   -0.5287   -1.4238    2.4155 H   0  0  0  0  0  0  0  0  0  0  0  0
  1 43  1  0  0  0  0
  2 28  1  0  0  0  0
  3 17  2  0  0  0  0
  5 24  1  0  0  0  0
  6 18  1  0  0  0  0
  7 17  1  0  0  0  0
  7  8  1  0  0  0  0
  8  1  1  0  0  0  0
  9  8  2  0  0  0  0
  9 10  1  0  0  0  0
 11  9  1  0  0  0  0
 12 11  1  0  0  0  0
 13 15  1  0  0  0  0
 13 11  2  0  0  0  0
 14 13  1  0  0  0  0
 15  7  2  0  0  0  0
 16 15  1  0  0  0  0
 17  6  1  0  0  0  0
 18 19  1  6  0  0  0
 18 23  1  0  0  0  0
 20  2  1  0  0  0  0
 20 21  1  0  0  0  0
 20 18  1  0  0  0  0
 22 20  1  0  0  0  0
 23  4  2  0  0  0  0
 23  5  1  0  0  0  0
 24 26  1  0  0  0  0
 24 27  1  0  0  0  0
 24 25  1  0  0  0  0
 28 30  1  0  0  0  0
 28 31  1  0  0  0  0
 29 28  1  0  0  0  0
 32  1  1  0  0  0  0
 32 41  1  0  0  0  0
 33 32  2  0  0  0  0
 34 33  1  0  0  0  0
 35 33  1  0  0  0  0
 35 37  2  0  0  0  0
 36 35  1  0  0  0  0
 37 39  1  0  0  0  0
 38 37  1  0  0  0  0
 39 41  2  0  0  0  0
 39 40  1  0  0  0  0
 41 42  1  0  0  0  0
 43 44  2  0  0  0  0
 43 52  1  0  0  0  0
 44 46  1  0  0  0  0
 45 44  1  0  0  0  0
 46 47  1  0  0  0  0
 46 48  2  0  0  0  0
 48 49  1  0  0  0  0
 50 48  1  0  0  0  0
 50 51  1  0  0  0  0
 52 50  2  0  0  0  0
 53 52  1  0  0  0  0
M  END
