1,2,6
q = -1.0, confidence = 0.0

 56 58  0  0  1  0  0  0  0  0999 V2000
   -1.1990    0.1573   -0.0152 P   0  0  0  0  0  0  0  0  0  0  0  0
    2.0041   -3.1794   -0.3971 S   0  0  0  0  0  0  0  0  0  0  0  0
    2.4949    1.0999    2.2417 O   0  0  0  0  0  0  0  0  0  0  0  0
    4.5817    1.7841   -0.3182 O   0  0  0  0  0  0  0  0  0  0  0  0
    2.3737    2.2773   -0.4559 O   0  0  0  0  0  0  0  0  0  0  0  0
    1.6533   -0.1638    0.5399 N   0  0  0  0  0  2  0  0  0  0  0  0
    0.1788    0.6237    2.3993 C   0  0  0  0  0  0  0  0  0  0  0  0
   -1.0904    0.5653    1.7675 C   0  0  0  0  0  0  0  0  0  0  0  0
   -2.2635    0.8101    2.5112 C   0  0  0  0  0  0  0  0  0  0  0  0
   -3.2417    0.7720    2.0102 H   0  0  0  0  0  0  0  0  0  0  0  0
   -2.1916    1.0912    3.8830 C   0  0  0  0  0  0  0  0  0  0  0  0
   -3.1156    1.2705    4.4531 H   0  0  0  0  0  0  0  0  0  0  0  0
   -0.9406    1.1462    4.5157 C   0  0  0  0  0  0  0  0  0  0  0  0
   -0.8735    1.3685    5.5916 H   0  0  0  0  0  0  0  0  0  0  0  0
    0.2271    0.9315    3.7733 C   0  0  0  0  0  0  0  0  0  0  0  0
    1.2239    1.0150    4.2299 H   0  0  0  0  0  0  0  0  0  0  0  0
    1.5257    0.5170    1.7103 C   0  0  0  0  0  0  0  0  0  0  0  0
    2.9877   -0.0184   -0.0383 C   0  0  1  0  0  0  0  0  0  0  0  0
    3.7592   -0.3774    0.6823 H   0  0  0  0  0  0  0  0  0  0  0  0
    3.1811   -0.7754   -1.3622 C   0  0  0  0  0  0  0  0  0  0  0  0
    4.0938   -0.3682   -1.8470 H   0  0  0  0  0  0  0  0  0  0  0  0
    2.3249   -0.5656   -2.0390 H   0  0  0  0  0  0  0  0  0  0  0  0
    3.3863   -2.2803   -1.2199 C   0  0  0  0  0  0  0  0  0  0  0  0
    4.3090   -2.5151   -0.6499 H   0  0  0  0  0  0  0  0  0  0  0  0
    3.4739   -2.7588   -2.2157 H   0  0  0  0  0  0  0  0  0  0  0  0
    3.4156    1.4449   -0.2515 C   0  0  0  0  0  0  0  0  0  0  0  0
    2.7270    3.6572   -0.5937 C   0  0  0  0  0  0  0  0  0  0  0  0
    1.7827    4.1939   -0.7869 H   0  0  0  0  0  0  0  0  0  0  0  0
    3.4398    3.8024   -1.4304 H   0  0  0  0  0  0  0  0  0  0  0  0
    3.2017    4.0242    0.3386 H   0  0  0  0  0  0  0  0  0  0  0  0
    2.5586   -3.1929    1.3419 C   0  0  0  0  0  0  0  0  0  0  0  0
    3.4781   -3.8036    1.4281 H   0  0  0  0  0  0  0  0  0  0  0  0
    1.7421   -3.6706    1.9153 H   0  0  0  0  0  0  0  0  0  0  0  0
    2.7168   -2.1656    1.7172 H   0  0  0  0  0  0  0  0  0  0  0  0
   -2.9655   -0.2082   -0.3185 C   0  0  0  0  0  0  0  0  0  0  0  0
   -3.5057   -1.3953    0.2217 C   0  0  0  0  0  0  0  0  0  0  0  0
   -2.8565   -2.0894    0.7742 H   0  0  0  0  0  0  0  0  0  0  0  0
   -4.8621   -1.6900    0.0390 C   0  0  0  0  0  0  0  0  0  0  0  0
   -5.2789   -2.6163    0.4620 H   0  0  0  0  0  0  0  0  0  0  0  0
   -5.6824   -0.8188   -0.6981 C   0  0  0  0  0  0  0  0  0  0  0  0
   -6.7459   -1.0593   -0.8480 H   0  0  0  0  0  0  0  0  0  0  0  0
   -5.1432    0.3527   -1.2497 C   0  0  0  0  0  0  0  0  0  0  0  0
   -5.7804    1.0351   -1.8322 H   0  0  0  0  0  0  0  0  0  0  0  0
   -3.7864    0.6617   -1.0615 C   0  0  0  0  0  0  0  0  0  0  0  0
   -3.3677    1.5824   -1.4929 H   0  0  0  0  0  0  0  0  0  0  0  0
   -0.8720    1.6981   -0.9430 C   0  0  0  0  0  0  0  0  0  0  0  0
   -1.1142    2.9630   -0.3750 C   0  0  0  0  0  0  0  0  0  0  0  0
   -1.4419    3.0411    0.6728 H   0  0  0  0  0  0  0  0  0  0  0  0
   -0.9384    4.1193   -1.1507 C   0  0  0  0  0  0  0  0  0  0  0  0
   -1.1320    5.1080   -0.7074 H   0  0  0  0  0  0  0  0  0  0  0  0
   -0.5135    4.0156   -2.4856 C   0  0  0  0  0  0  0  0  0  0  0  0
   -0.3747    4.9245   -3.0906 H   0  0  0  0  0  0  0  0  0  0  0  0
   -0.2555    2.7533   -3.0457 C   0  0  0  0  0  0  0  0  0  0  0  0
    0.0874    2.6711   -4.0881 H   0  0  0  0  0  0  0  0  0  0  0  0
   -0.4339    1.5943   -2.2776 C   0  0  0  0  0  0  0  0  0  0  0  0
   -0.2359    0.5990   -2.7066 H   0  0  0  0  0  0  0  0  0  0  0  0
  1  8  1  0  0  0  0
  2 31  1  0  0  0  0
  4 26  2  0  0  0  0
  5 26  1  0  0  0  0
  6 17  1  0  0  0  0
  7 15  1  0  0  0  0
  8  7  2  0  0  0  0
  8  9  1  0  0  0  0
  9 11  2  0  0  0  0
 10  9  1  0  0  0  0
 11 12  1  0  0  0  0
 11 13  1  0  0  0  0
 13 14  1  0  0  0  0
 15 16  1  0  0  0  0
 15 13  2  0  0  0  0
 17  3  2  0  0  0  0
 17  7  1  0  0  0  0
 18  6  1  0  0  0  0
 18 19  1  1  0  0  0
 20 23  1  0  0  0  0
 20 18  1  0  0  0  0
 21 20  1  0  0  0  0
 22 20  1  0  0  0  0
 23 24  1  0  0  0  0
 23  2  1  0  0  0  0
 25 23  1  0  0  0  0
 26 18  1  0  0  0  0
 27  5  1  0  0  0  0
 27 30  1  0  0  0  0
 28 27  1  0  0  0  0
 29 27  1  0  0  0  0
 31 32  1  0  0  0  0
 31 34  1  0  0  0  0
 31 33  1  0  0  0  0
 35  1  1  0  0  0  0
 35 36  1  0  0  0  0
 36 37  1  0  0  0  0
 38 36  2  0  0  0  0
 38 39  1  0  0  0  0
 40 38  1  0  0  0  0
 41 40  1  0  0  0  0
 42 44  1  0  0  0  0
 42 40  2  0  0  0  0
 43 42  1  0  0  0  0
 44 35  2  0  0  0  0
 45 44  1  0  0  0  0
 46 47  1  0  0  0  0
 46  1  1  0  0  0  0
 47 48  1  0  0  0  0
 49 50  1  0  0  0  0
 49 47  2  0  0  0  0
 51 49  1  0  0  0  0
 52 51  1  0  0  0  0
 53 51  2  0  0  0  0
 53 55  1  0  0  0  0
 54 53  1  0  0  0  0
 55 46  2  0  0  0  0
 56 55  1  0  0  0  0
M  END
