1,2,6
q = 0.0, confidence = 0.99

 66 68  0  0  1  0  0  0  0  0999 V2000
    1.1792   -3.0261    0.4831 S   0  0  0  0  0  0  0  0  0  0  0  0
   -1.3734    0.8889    0.0617 P   0  0  0  0  0  0  0  0  0  0  0  0
    2.6863   -0.4419   -0.7924 O   0  0  0  0  0  0  0  0  0  0  0  0
    4.2982    0.8763    0.1797 N   0  0  0  0  0  0  0  0  0  0  0  0
    4.6017    1.2949    1.0608 H   0  0  0  0  0  0  0  0  0  0  0  0
    1.1532    0.1587    1.6092 N   0  0  0  0  0  2  0  0  0  0  0  0
    0.3594   -3.8640    1.8800 C   0  0  0  0  0  0  0  0  0  0  0  0
   -0.6773   -4.0552    1.5454 H   0  0  0  0  0  0  0  0  0  0  0  0
    0.3454   -3.2310    2.7866 H   0  0  0  0  0  0  0  0  0  0  0  0
    0.8744   -4.8250    2.0717 H   0  0  0  0  0  0  0  0  0  0  0  0
    2.8371   -2.7023    1.1900 C   0  0  0  0  0  0  0  0  0  0  0  0
    3.1582   -3.6468    1.6741 H   0  0  0  0  0  0  0  0  0  0  0  0
    3.4763   -2.5493    0.2995 H   0  0  0  0  0  0  0  0  0  0  0  0
    2.9429   -1.5355    2.1620 C   0  0  0  0  0  0  0  0  0  0  0  0
    3.9958   -1.4930    2.5131 H   0  0  0  0  0  0  0  0  0  0  0  0
    2.3247   -1.7119    3.0676 H   0  0  0  0  0  0  0  0  0  0  0  0
    2.6001   -0.1306    1.6160 C   0  0  1  0  0  0  0  0  0  0  0  0
    3.0667    0.5956    2.3146 H   0  0  0  0  0  0  0  0  0  0  0  0
    3.1887    0.0990    0.1960 C   0  0  0  0  0  0  0  0  0  0  0  0
    5.1193    1.1939   -1.0219 C   0  0  0  0  0  0  0  0  0  0  0  0
    5.6763   -0.1100   -1.6201 C   0  0  0  0  0  0  0  0  0  0  0  0
    6.3159    0.1199   -2.4945 H   0  0  0  0  0  0  0  0  0  0  0  0
    4.8542   -0.7701   -1.9545 H   0  0  0  0  0  0  0  0  0  0  0  0
    6.2941   -0.6519   -0.8759 H   0  0  0  0  0  0  0  0  0  0  0  0
    4.2533    1.9418   -2.0502 C   0  0  0  0  0  0  0  0  0  0  0  0
    3.4131    1.3063   -2.3845 H   0  0  0  0  0  0  0  0  0  0  0  0
    4.8666    2.2131   -2.9319 H   0  0  0  0  0  0  0  0  0  0  0  0
    3.8366    2.8724   -1.6155 H   0  0  0  0  0  0  0  0  0  0  0  0
    6.2656    2.0903   -0.5333 C   0  0  0  0  0  0  0  0  0  0  0  0
    5.8801    3.0315   -0.0891 H   0  0  0  0  0  0  0  0  0  0  0  0
    6.9194    2.3647   -1.3827 H   0  0  0  0  0  0  0  0  0  0  0  0
    6.8938    1.5695    0.2187 H   0  0  0  0  0  0  0  0  0  0  0  0
    0.7778    1.1025    2.4327 C   0  0  0  0  0  3  0  0  0  0  0  0
    1.5643    1.5229    3.0908 H   0  0  0  0  0  0  0  0  0  0  0  0
   -0.5355    1.6982    2.6402 C   0  0  0  0  0  0  0  0  0  0  0  0
   -0.7085    2.4011    3.8579 C   0  0  0  0  0  0  0  0  0  0  0  0
    0.1267    2.4416    4.5745 H   0  0  0  0  0  0  0  0  0  0  0  0
   -1.9206    3.0264    4.1693 C   0  0  0  0  0  0  0  0  0  0  0  0
   -2.0389    3.5498    5.1291 H   0  0  0  0  0  0  0  0  0  0  0  0
   -2.9751    2.9884    3.2459 C   0  0  0  0  0  0  0  0  0  0  0  0
   -3.9307    3.4835    3.4737 H   0  0  0  0  0  0  0  0  0  0  0  0
   -2.8108    2.3279    2.0158 C   0  0  0  0  0  0  0  0  0  0  0  0
   -3.6344    2.3200    1.2874 H   0  0  0  0  0  0  0  0  0  0  0  0
   -1.6065    1.6762    1.7023 C   0  0  0  0  0  0  0  0  0  0  0  0
   -3.0600    0.7356   -0.6112 C   0  0  0  0  0  0  0  0  0  0  0  0
   -3.9729   -0.1259    0.0358 C   0  0  0  0  0  0  0  0  0  0  0  0
   -3.6535   -0.7159    0.9084 H   0  0  0  0  0  0  0  0  0  0  0  0
   -5.2826   -0.2355   -0.4447 C   0  0  0  0  0  0  0  0  0  0  0  0
   -5.9939   -0.9068    0.0588 H   0  0  0  0  0  0  0  0  0  0  0  0
   -5.6817    0.4956   -1.5776 C   0  0  0  0  0  0  0  0  0  0  0  0
   -6.7093    0.3990   -1.9588 H   0  0  0  0  0  0  0  0  0  0  0  0
   -4.7709    1.3424   -2.2259 C   0  0  0  0  0  0  0  0  0  0  0  0
   -5.0805    1.9112   -3.1151 H   0  0  0  0  0  0  0  0  0  0  0  0
   -3.4579    1.4691   -1.7445 C   0  0  0  0  0  0  0  0  0  0  0  0
   -2.7458    2.1342   -2.2542 H   0  0  0  0  0  0  0  0  0  0  0  0
   -0.5082    2.1333   -0.9609 C   0  0  0  0  0  0  0  0  0  0  0  0
   -0.5583    3.5089   -0.6562 C   0  0  0  0  0  0  0  0  0  0  0  0
   -1.0977    3.8619    0.2356 H   0  0  0  0  0  0  0  0  0  0  0  0
    0.0806    4.4303   -1.4994 C   0  0  0  0  0  0  0  0  0  0  0  0
    0.0432    5.5039   -1.2619 H   0  0  0  0  0  0  0  0  0  0  0  0
    0.7579    3.9845   -2.6464 C   0  0  0  0  0  0  0  0  0  0  0  0
    1.2519    4.7112   -3.3088 H   0  0  0  0  0  0  0  0  0  0  0  0
    0.8059    2.6136   -2.9491 C   0  0  0  0  0  0  0  0  0  0  0  0
    1.3377    2.2638   -3.8462 H   0  0  0  0  0  0  0  0  0  0  0  0
    0.1840    1.6825   -2.1056 C   0  0  0  0  0  0  0  0  0  0  0  0
    0.2382    0.6051   -2.3264 H   0  0  0  0  0  0  0  0  0  0  0  0
  1 11  1  0  0  0  0
  1  7  1  0  0  0  0
  2 44  1  0  0  0  0
  3 19  2  0  0  0  0
  4 19  1  0  0  0  0
  4  5  1  0  0  0  0
  6 17  1  0  0  0  0
  6 33  1  0  0  0  0
  7 10  1  0  0  0  0
  7  9  1  0  0  0  0
  8  7  1  0  0  0  0
 11 12  1  0  0  0  0
 11 14  1  0  0  0  0
 13 11  1  0  0  0  0
 14 15  1  0  0  0  0
 14 16  1  0  0  0  0
 17 14  1  0  0  0  0
 17 18  1  1  0  0  0
 19 17  1  0  0  0  0
 20 29  1  0  0  0  0
 20  4  1  0  0  0  0
 21 20  1  0  0  0  0
 21 24  1  0  0  0  0
 22 21  1  0  0  0  0
 23 21  1  0  0  0  0
 25 28  1  0  0  0  0
 25 20  1  0  0  0  0
 26 25  1  0  0  0  0
 27 25  1  0  0  0  0
 29 30  1  0  0  0  0
 29 32  1  0  0  0  0
 31 29  1  0  0  0  0
 33 35  1  0  0  0  0
 33 34  1  0  0  0  0
 35 36  1  0  0  0  0
 36 38  2  0  0  0  0
 36 37  1  0  0  0  0
 38 39  1  0  0  0  0
 40 41  1  0  0  0  0
 40 38  1  0  0  0  0
 42 40  2  0  0  0  0
 43 42  1  0  0  0  0
 44 42  1  0  0  0  0
 44 35  2  0  0  0  0
 45 46  1  0  0  0  0
 45  2  1  0  0  0  0
 46 47  1  0  0  0  0
 48 46  2  0  0  0  0
 48 49  1  0  0  0  0
 50 48  1  0  0  0  0
 51 50  1  0  0  0  0
 52 54  1  0  0  0  0
 52 50  2  0  0  0  0
 53 52  1  0  0  0  0
 54 45  2  0  0  0  0
 55 54  1  0  0  0  0
 56 57  1  0  0  0  0
 56  2  1  0  0  0  0
 57 58  1  0  0  0  0
 59 60  1  0  0  0  0
 59 57  2  0  0  0  0
 61 59  1  0  0  0  0
 62 61  1  0  0  0  0
 63 61  2  0  0  0  0
 63 65  1  0  0  0  0
 64 63  1  0  0  0  0
 65 56  2  0  0  0  0
 66 65  1  0  0  0  0
M  END
