1,2,5
q = -1.0

 71 76  0  0  1  0  0  0  0  0999 V2000
   -1.4894   -0.0132   -2.2014 S   0  0  0  0  0  1  0  0  0  0  0  0
    2.3300   -0.2785    0.0362 P   0  0  0  0  0  0  0  0  0  0  0  0
   -2.2789    0.6583   -0.4812 P   0  0  0  0  0  4  0  0  0  0  0  0
    0.4056   -0.9360    1.7866 C   0  0  0  0  0  0  0  0  0  0  0  0
   -0.3442   -0.5953    0.6850 N   0  0  0  0  0  2  0  0  0  0  0  0
   -0.1221   -1.3885    3.0336 C   0  0  0  0  0  0  0  0  0  0  0  0
   -1.2017   -1.5567    3.1503 H   0  0  0  0  0  0  0  0  0  0  0  0
    3.4006   -1.5825   -0.6688 C   0  0  0  0  0  0  0  0  0  0  0  0
    3.4045    1.1869    0.2444 C   0  0  0  0  0  0  0  0  0  0  0  0
    0.7329   -1.6529    4.1085 C   0  0  0  0  0  0  0  0  0  0  0  0
    0.2957   -2.0009    5.0578 H   0  0  0  0  0  0  0  0  0  0  0  0
    2.6704   -1.0763    2.7806 C   0  0  0  0  0  0  0  0  0  0  0  0
    3.7587   -0.9492    2.6676 H   0  0  0  0  0  0  0  0  0  0  0  0
   -2.5064   -1.8888    0.6573 C   0  0  0  0  0  0  0  0  0  0  0  0
   -1.5873    2.6678    1.3827 C   0  0  0  0  0  0  0  0  0  0  0  0
   -2.0686    2.0432    2.1508 H   0  0  0  0  0  0  0  0  0  0  0  0
   -0.9085    3.0479   -0.9335 C   0  0  0  0  0  0  0  0  0  0  0  0
   -0.8329    2.6848   -1.9700 H   0  0  0  0  0  0  0  0  0  0  0  0
   -1.9614   -2.8851   -0.1747 C   0  0  0  0  0  0  0  0  0  0  0  0
   -0.9823   -2.6981   -0.6397 H   0  0  0  0  0  0  0  0  0  0  0  0
    4.9744   -3.5997   -1.8365 C   0  0  0  0  0  0  0  0  0  0  0  0
    5.5932   -4.3880   -2.2920 H   0  0  0  0  0  0  0  0  0  0  0  0
   -1.5527    2.2526    0.0355 C   0  0  0  0  0  0  0  0  0  0  0  0
    4.2183   -3.8762   -0.6867 C   0  0  0  0  0  0  0  0  0  0  0  0
    4.2414   -4.8809   -0.2376 H   0  0  0  0  0  0  0  0  0  0  0  0
   -2.6606   -4.0810   -0.3905 C   0  0  0  0  0  0  0  0  0  0  0  0
   -2.2281   -4.8556   -1.0420 H   0  0  0  0  0  0  0  0  0  0  0  0
   -1.7746   -0.5751    0.8361 C   0  0  2  0  0  0  0  0  0  0  0  0
   -2.0869   -0.1198    1.8081 H   0  0  0  0  0  0  0  0  0  0  0  0
   -6.8995    0.8741   -0.5213 C   0  0  0  0  0  0  0  0  0  0  0  0
   -7.9997    0.9025   -0.5233 H   0  0  0  0  0  0  0  0  0  0  0  0
    4.1505   -1.3092   -1.8338 C   0  0  0  0  0  0  0  0  0  0  0  0
    4.0892   -0.3120   -2.2942 H   0  0  0  0  0  0  0  0  0  0  0  0
    1.8282   -0.8180    1.6897 C   0  0  0  0  0  0  0  0  0  0  0  0
   -3.7535   -2.1077    1.2740 C   0  0  0  0  0  0  0  0  0  0  0  0
   -4.1824   -1.3283    1.9247 H   0  0  0  0  0  0  0  0  0  0  0  0
    3.4308   -2.8728   -0.1018 C   0  0  0  0  0  0  0  0  0  0  0  0
    2.8402   -3.0851    0.8021 H   0  0  0  0  0  0  0  0  0  0  0  0
    4.9370   -2.3163   -2.4080 C   0  0  0  0  0  0  0  0  0  0  0  0
    5.5212   -2.0987   -3.3151 H   0  0  0  0  0  0  0  0  0  0  0  0
   -0.3478    4.6742    0.7894 C   0  0  0  0  0  0  0  0  0  0  0  0
    0.1323    5.6189    1.0868 H   0  0  0  0  0  0  0  0  0  0  0  0
   -0.9800    3.8759    1.7560 C   0  0  0  0  0  0  0  0  0  0  0  0
   -0.9934    4.1892    2.8107 H   0  0  0  0  0  0  0  0  0  0  0  0
   -0.3138    4.2589   -0.5521 C   0  0  0  0  0  0  0  0  0  0  0  0
    0.1995    4.8703   -1.3094 H   0  0  0  0  0  0  0  0  0  0  0  0
   -6.1741    1.8868    0.1270 C   0  0  0  0  0  0  0  0  0  0  0  0
   -6.7029    2.7114    0.6284 H   0  0  0  0  0  0  0  0  0  0  0  0
   -4.0937    0.8046   -0.5173 C   0  0  0  0  0  0  0  0  0  0  0  0
    4.7706    1.0663    0.5663 C   0  0  0  0  0  0  0  0  0  0  0  0
    5.2413    0.0721    0.6096 H   0  0  0  0  0  0  0  0  0  0  0  0
   -4.7715    1.8564    0.1314 C   0  0  0  0  0  0  0  0  0  0  0  0
   -4.2040    2.6558    0.6309 H   0  0  0  0  0  0  0  0  0  0  0  0
    2.8116    2.4614    0.1580 C   0  0  0  0  0  0  0  0  0  0  0  0
    1.7541    2.5443   -0.1299 H   0  0  0  0  0  0  0  0  0  0  0  0
   -4.8227   -0.2068   -1.1783 C   0  0  0  0  0  0  0  0  0  0  0  0
   -4.2839   -1.0158   -1.6948 H   0  0  0  0  0  0  0  0  0  0  0  0
   -6.2233   -0.1694   -1.1746 C   0  0  0  0  0  0  0  0  0  0  0  0
   -6.7898   -0.9611   -1.6874 H   0  0  0  0  0  0  0  0  0  0  0  0
   -3.9070   -4.2928    0.2224 C   0  0  0  0  0  0  0  0  0  0  0  0
   -4.4523   -5.2341    0.0539 H   0  0  0  0  0  0  0  0  0  0  0  0
   -4.4515   -3.3049    1.0592 C   0  0  0  0  0  0  0  0  0  0  0  0
   -5.4235   -3.4686    1.5490 H   0  0  0  0  0  0  0  0  0  0  0  0
    2.1293   -1.4948    4.0052 C   0  0  0  0  0  0  0  0  0  0  0  0
    2.7831   -1.7038    4.8640 H   0  0  0  0  0  0  0  0  0  0  0  0
    3.5770    3.6066    0.4124 C   0  0  0  0  0  0  0  0  0  0  0  0
    3.1079    4.6001    0.3417 H   0  0  0  0  0  0  0  0  0  0  0  0
    4.9370    3.4876    0.7442 C   0  0  0  0  0  0  0  0  0  0  0  0
    5.5386    4.3887    0.9383 H   0  0  0  0  0  0  0  0  0  0  0  0
    5.5327    2.2181    0.8171 C   0  0  0  0  0  0  0  0  0  0  0  0
    6.6004    2.1224    1.0670 H   0  0  0  0  0  0  0  0  0  0  0  0
  1  3  1  0  0  0  0
  2  9  1  0  0  0  0
  2 34  1  0  0  0  0
  3 23  1  0  0  0  0
  3 28  1  0  0  0  0
  4  6  1  0  0  0  0
  5 28  1  0  0  0  0
  5  4  1  0  0  0  0
  6  7  1  0  0  0  0
  6 10  2  0  0  0  0
  8 37  1  0  0  0  0
  8  2  1  0  0  0  0
  9 50  1  0  0  0  0
 10 11  1  0  0  0  0
 12 64  2  0  0  0  0
 13 12  1  0  0  0  0
 14 28  1  0  0  0  0
 14 35  1  0  0  0  0
 15 43  1  0  0  0  0
 15 16  1  0  0  0  0
 17 45  2  0  0  0  0
 17 23  1  0  0  0  0
 18 17  1  0  0  0  0
 19 14  2  0  0  0  0
 20 19  1  0  0  0  0
 21 24  1  0  0  0  0
 22 21  1  0  0  0  0
 23 15  2  0  0  0  0
 24 25  1  0  0  0  0
 24 37  2  0  0  0  0
 26 19  1  0  0  0  0
 26 60  2  0  0  0  0
 27 26  1  0  0  0  0
 28 29  1  1  0  0  0
 30 47  1  0  0  0  0
 31 30  1  0  0  0  0
 32  8  2  0  0  0  0
 33 32  1  0  0  0  0
 34  4  2  0  0  0  0
 34 12  1  0  0  0  0
 35 36  1  0  0  0  0
 37 38  1  0  0  0  0
 39 21  2  0  0  0  0
 39 32  1  0  0  0  0
 40 39  1  0  0  0  0
 41 42  1  0  0  0  0
 41 43  2  0  0  0  0
 43 44  1  0  0  0  0
 45 41  1  0  0  0  0
 46 45  1  0  0  0  0
 47 52  2  0  0  0  0
 47 48  1  0  0  0  0
 49  3  1  0  0  0  0
 49 52  1  0  0  0  0
 50 51  1  0  0  0  0
 50 70  2  0  0  0  0
 52 53  1  0  0  0  0
 54  9  2  0  0  0  0
 54 66  1  0  0  0  0
 55 54  1  0  0  0  0
 56 58  1  0  0  0  0
 56 49  2  0  0  0  0
 57 56  1  0  0  0  0
 58 30  2  0  0  0  0
 59 58  1  0  0  0  0
 60 62  1  0  0  0  0
 61 60  1  0  0  0  0
 62 35  2  0  0  0  0
 62 63  1  0  0  0  0
 64 10  1  0  0  0  0
 64 65  1  0  0  0  0
 66 68  2  0  0  0  0
 67 66  1  0  0  0  0
 68 70  1  0  0  0  0
 68 69  1  0  0  0  0
 70 71  1  0  0  0  0
M  END
