1,2,4
q = -1.0, confidence = 0.01

 67 70  0  0  1  0  0  0  0  0999 V2000
    1.8572   -2.3530   -0.3944 S   0  0  0  0  0  1  0  0  0  0  0  0
   -2.2065    0.0875    0.2353 P   0  0  0  0  0  0  0  0  0  0  0  0
    3.1886    0.0137    0.0612 N   0  0  0  0  0  0  0  0  0  0  0  0
    0.9407    0.8257   -0.1436 N   0  0  0  0  0  2  0  0  0  0  0  0
    4.3423   -1.6080   -1.0833 N   0  0  0  0  0  0  0  0  0  0  0  0
   -1.6918    1.6804    1.0388 C   0  0  0  0  0  0  0  0  0  0  0  0
   -2.5807    2.2252    1.4111 H   0  0  0  0  0  0  0  0  0  0  0  0
   -1.0580    1.3577    1.8913 H   0  0  0  0  0  0  0  0  0  0  0  0
    3.1932   -1.1969   -0.4725 C   0  0  1  0  0  3  0  0  0  0  0  0
    2.2233    0.8933    0.3008 C   0  0  0  0  0  0  0  0  0  0  0  0
   -0.9352    2.4908    0.0251 C   0  0  0  0  0  0  0  0  0  0  0  0
   -1.4906    3.6917   -0.4579 C   0  0  0  0  0  0  0  0  0  0  0  0
   -2.4646    4.0141   -0.0581 H   0  0  0  0  0  0  0  0  0  0  0  0
   -0.8395    4.4752   -1.4193 C   0  0  0  0  0  0  0  0  0  0  0  0
   -1.2999    5.4099   -1.7719 H   0  0  0  0  0  0  0  0  0  0  0  0
    0.3956    4.0499   -1.9309 C   0  0  0  0  0  0  0  0  0  0  0  0
    0.9205    4.6468   -2.6920 H   0  0  0  0  0  0  0  0  0  0  0  0
    0.9567    2.8505   -1.4800 C   0  0  0  0  0  0  0  0  0  0  0  0
    1.9114    2.4915   -1.8916 H   0  0  0  0  0  0  0  0  0  0  0  0
    0.3130    2.0584   -0.5030 C   0  0  0  0  0  0  0  0  0  0  0  0
   -3.2788   -0.8067    1.4083 C   0  0  0  0  0  0  0  0  0  0  0  0
   -3.3861   -0.4233    2.7591 C   0  0  0  0  0  0  0  0  0  0  0  0
   -2.8163    0.4340    3.1432 H   0  0  0  0  0  0  0  0  0  0  0  0
   -4.2128   -1.1482    3.6299 C   0  0  0  0  0  0  0  0  0  0  0  0
   -4.2918   -0.8437    4.6844 H   0  0  0  0  0  0  0  0  0  0  0  0
   -4.9278   -2.2610    3.1608 C   0  0  0  0  0  0  0  0  0  0  0  0
   -5.5725   -2.8305    3.8474 H   0  0  0  0  0  0  0  0  0  0  0  0
   -4.8140   -2.6512    1.8169 C   0  0  0  0  0  0  0  0  0  0  0  0
   -5.3632   -3.5302    1.4473 H   0  0  0  0  0  0  0  0  0  0  0  0
   -3.9909   -1.9315    0.9402 C   0  0  0  0  0  0  0  0  0  0  0  0
   -3.8876   -2.2489   -0.1069 H   0  0  0  0  0  0  0  0  0  0  0  0
   -3.3567    0.6716   -1.0804 C   0  0  0  0  0  0  0  0  0  0  0  0
   -4.7355    0.8114   -0.8100 C   0  0  0  0  0  0  0  0  0  0  0  0
   -5.1422    0.4856    0.1586 H   0  0  0  0  0  0  0  0  0  0  0  0
   -5.5907    1.3632   -1.7748 C   0  0  0  0  0  0  0  0  0  0  0  0
   -6.6647    1.4628   -1.5553 H   0  0  0  0  0  0  0  0  0  0  0  0
   -5.0804    1.7852   -3.0128 C   0  0  0  0  0  0  0  0  0  0  0  0
   -5.7540    2.2163   -3.7692 H   0  0  0  0  0  0  0  0  0  0  0  0
   -3.7103    1.6514   -3.2835 C   0  0  0  0  0  0  0  0  0  0  0  0
   -3.3023    1.9780   -4.2519 H   0  0  0  0  0  0  0  0  0  0  0  0
   -2.8488    1.0959   -2.3257 C   0  0  0  0  0  0  0  0  0  0  0  0
   -1.7798    0.9823   -2.5508 H   0  0  0  0  0  0  0  0  0  0  0  0
    2.6524    2.0649    1.1244 C   0  0  0  0  0  0  0  0  0  0  0  0
    3.9373    2.6220    0.9566 C   0  0  0  0  0  0  0  0  0  0  0  0
    4.5991    2.2017    0.1859 H   0  0  0  0  0  0  0  0  0  0  0  0
    4.3529    3.6993    1.7492 C   0  0  0  0  0  0  0  0  0  0  0  0
    5.3514    4.1372    1.5987 H   0  0  0  0  0  0  0  0  0  0  0  0
    3.4975    4.2192    2.7349 C   0  0  0  0  0  0  0  0  0  0  0  0
    3.8250    5.0635    3.3606 H   0  0  0  0  0  0  0  0  0  0  0  0
    2.2271    3.6518    2.9264 C   0  0  0  0  0  0  0  0  0  0  0  0
    1.5622    4.0395    3.7129 H   0  0  0  0  0  0  0  0  0  0  0  0
    1.8049    2.5839    2.1247 C   0  0  0  0  0  0  0  0  0  0  0  0
    0.8265    2.1144    2.2924 H   0  0  0  0  0  0  0  0  0  0  0  0
    4.5008   -2.9722   -1.5935 C   0  0  0  0  0  0  0  0  0  0  0  0
    5.2330   -2.9234   -2.4250 H   0  0  0  0  0  0  0  0  0  0  0  0
    3.5293   -3.2838   -2.0308 H   0  0  0  0  0  0  0  0  0  0  0  0
    4.9438   -3.9911   -0.5415 C   0  0  0  0  0  0  0  0  0  0  0  0
    5.0151   -4.9986   -0.9983 H   0  0  0  0  0  0  0  0  0  0  0  0
    4.2063   -4.0437    0.2837 H   0  0  0  0  0  0  0  0  0  0  0  0
    5.9336   -3.7381   -0.1128 H   0  0  0  0  0  0  0  0  0  0  0  0
    5.4890   -0.6916   -1.1517 C   0  0  0  0  0  0  0  0  0  0  0  0
    5.1065    0.3145   -1.4138 H   0  0  0  0  0  0  0  0  0  0  0  0
    6.1208   -1.0332   -1.9964 H   0  0  0  0  0  0  0  0  0  0  0  0
    6.3048   -0.6163    0.1401 C   0  0  0  0  0  0  0  0  0  0  0  0
    7.1383    0.1050    0.0193 H   0  0  0  0  0  0  0  0  0  0  0  0
    6.7402   -1.5988    0.4083 H   0  0  0  0  0  0  0  0  0  0  0  0
    5.6662   -0.2710    0.9756 H   0  0  0  0  0  0  0  0  0  0  0  0
  2  6  1  0  0  0  0
  2 21  1  0  0  0  0
  3 10  2  0  0  0  0
  4 10  1  0  0  0  0
  5  9  1  0  0  0  0
  6  7  1  0  0  0  0
  6  8  1  0  0  0  0
  9  1  1  1  0  0  0
  9  3  1  0  0  0  0
 10 43  1  0  0  0  0
 11  6  1  0  0  0  0
 12 13  1  0  0  0  0
 12 11  1  0  0  0  0
 14 12  2  0  0  0  0
 15 14  1  0  0  0  0
 16 18  2  0  0  0  0
 16 14  1  0  0  0  0
 17 16  1  0  0  0  0
 18 20  1  0  0  0  0
 19 18  1  0  0  0  0
 20  4  1  0  0  0  0
 20 11  2  0  0  0  0
 21 22  1  0  0  0  0
 22 23  1  0  0  0  0
 22 24  2  0  0  0  0
 24 25  1  0  0  0  0
 26 24  1  0  0  0  0
 26 27  1  0  0  0  0
 28 26  2  0  0  0  0
 29 28  1  0  0  0  0
 30 21  2  0  0  0  0
 30 28  1  0  0  0  0
 31 30  1  0  0  0  0
 32 33  1  0  0  0  0
 32  2  1  0  0  0  0
 33 34  1  0  0  0  0
 35 36  1  0  0  0  0
 35 33  2  0  0  0  0
 37 35  1  0  0  0  0
 38 37  1  0  0  0  0
 39 37  2  0  0  0  0
 39 41  1  0  0  0  0
 40 39  1  0  0  0  0
 41 32  2  0  0  0  0
 42 41  1  0  0  0  0
 43 52  1  0  0  0  0
 44 43  2  0  0  0  0
 44 46  1  0  0  0  0
 45 44  1  0  0  0  0
 46 48  2  0  0  0  0
 47 46  1  0  0  0  0
 48 50  1  0  0  0  0
 48 49  1  0  0  0  0
 50 51  1  0  0  0  0
 52 53  1  0  0  0  0
 52 50  2  0  0  0  0
 54  5  1  0  0  0  0
 54 57  1  0  0  0  0
 55 54  1  0  0  0  0
 56 54  1  0  0  0  0
 57 60  1  0  0  0  0
 57 59  1  0  0  0  0
 58 57  1  0  0  0  0
 61  5  1  0  0  0  0
 61 64  1  0  0  0  0
 62 61  1  0  0  0  0
 63 61  1  0  0  0  0
 64 66  1  0  0  0  0
 64 67  1  0  0  0  0
 65 64  1  0  0  0  0
M  END
