1,2,4
q = -1.0

 56 59  0  0  0  0  0  0  0  0999 V2000
   -1.4467   -2.3504   -0.1864 S   0  0  0  0  0  1  0  0  0  0  0  0
    2.2085    0.4187   -0.0085 P   0  0  0  0  0  0  0  0  0  0  0  0
   -8.7715    1.3777    0.0482 O   0  0  0  0  0  0  0  0  0  0  0  0
   -0.9578    0.5631   -0.3161 N   0  0  0  0  0  2  0  0  0  0  0  0
   -2.2749    0.2679   -0.1961 N   0  0  0  0  0  0  0  0  0  0  0  0
   -3.9031   -1.3920   -0.0484 N   0  0  0  0  0  0  0  0  0  0  0  0
   -0.7269    1.8502   -0.5051 C   0  0  0  0  0  3  0  0  0  0  0  0
   -1.6459    2.4606   -0.5509 H   0  0  0  0  0  0  0  0  0  0  0  0
    0.5077    2.5781   -0.7330 C   0  0  0  0  0  0  0  0  0  0  0  0
    0.3264    3.9368   -1.1206 C   0  0  0  0  0  0  0  0  0  0  0  0
   -0.7009    4.3262   -1.1908 H   0  0  0  0  0  0  0  0  0  0  0  0
    1.4013    4.7707   -1.4308 C   0  0  0  0  0  0  0  0  0  0  0  0
    1.2145    5.8112   -1.7363 H   0  0  0  0  0  0  0  0  0  0  0  0
    2.7138    4.2749   -1.3621 C   0  0  0  0  0  0  0  0  0  0  0  0
    3.5707    4.9166   -1.6148 H   0  0  0  0  0  0  0  0  0  0  0  0
    2.9242    2.9485   -0.9614 C   0  0  0  0  0  0  0  0  0  0  0  0
    3.9506    2.5574   -0.8962 H   0  0  0  0  0  0  0  0  0  0  0  0
    1.8493    2.0991   -0.6341 C   0  0  0  0  0  0  0  0  0  0  0  0
    3.7669   -0.0426   -0.8541 C   0  0  0  0  0  0  0  0  0  0  0  0
    3.6826   -0.5147   -2.1798 C   0  0  0  0  0  0  0  0  0  0  0  0
    2.6956   -0.6499   -2.6483 H   0  0  0  0  0  0  0  0  0  0  0  0
    4.8512   -0.8299   -2.8838 C   0  0  0  0  0  0  0  0  0  0  0  0
    4.7816   -1.2023   -3.9169 H   0  0  0  0  0  0  0  0  0  0  0  0
    6.1063   -0.6897   -2.2669 C   0  0  0  0  0  0  0  0  0  0  0  0
    7.0227   -0.9479   -2.8192 H   0  0  0  0  0  0  0  0  0  0  0  0
    6.1903   -0.2319   -0.9435 C   0  0  0  0  0  0  0  0  0  0  0  0
    7.1710   -0.1297   -0.4546 H   0  0  0  0  0  0  0  0  0  0  0  0
    5.0230    0.0935   -0.2338 C   0  0  0  0  0  0  0  0  0  0  0  0
    5.0881    0.4464    0.8063 H   0  0  0  0  0  0  0  0  0  0  0  0
    2.6621    0.6707    1.7565 C   0  0  0  0  0  0  0  0  0  0  0  0
    2.9302   -0.4739    2.5394 C   0  0  0  0  0  0  0  0  0  0  0  0
    2.8524   -1.4747    2.0826 H   0  0  0  0  0  0  0  0  0  0  0  0
    3.2812   -0.3280    3.8879 C   0  0  0  0  0  0  0  0  0  0  0  0
    3.4917   -1.2231    4.4926 H   0  0  0  0  0  0  0  0  0  0  0  0
    3.3509    0.9496    4.4692 C   0  0  0  0  0  0  0  0  0  0  0  0
    3.6188    1.0586    5.5312 H   0  0  0  0  0  0  0  0  0  0  0  0
    3.0703    2.0857    3.6955 C   0  0  0  0  0  0  0  0  0  0  0  0
    3.1167    3.0883    4.1472 H   0  0  0  0  0  0  0  0  0  0  0  0
    2.7283    1.9514    2.3404 C   0  0  0  0  0  0  0  0  0  0  0  0
    2.5119    2.8458    1.7383 H   0  0  0  0  0  0  0  0  0  0  0  0
   -2.5877   -1.0197   -0.1408 C   0  0  0  0  0  0  0  0  0  0  0  0
   -5.1016   -0.6591   -0.0284 C   0  0  0  0  0  0  0  0  0  0  0  0
   -6.3049   -1.3934    0.0402 C   0  0  0  0  0  0  0  0  0  0  0  0
   -6.2675   -2.4944    0.0719 H   0  0  0  0  0  0  0  0  0  0  0  0
   -7.5509   -0.7545    0.0682 C   0  0  0  0  0  0  0  0  0  0  0  0
   -8.4610   -1.3663    0.1216 H   0  0  0  0  0  0  0  0  0  0  0  0
   -7.6171    0.6531    0.0267 C   0  0  0  0  0  0  0  0  0  0  0  0
   -6.4156    1.3900   -0.0415 C   0  0  0  0  0  0  0  0  0  0  0  0
   -6.4821    2.4873   -0.0716 H   0  0  0  0  0  0  0  0  0  0  0  0
   -5.1746    0.7535   -0.0684 C   0  0  0  0  0  0  0  0  0  0  0  0
   -4.2426    1.3274   -0.1196 H   0  0  0  0  0  0  0  0  0  0  0  0
   -9.9975    0.6783    0.1172 C   0  0  0  0  0  0  0  0  0  0  0  0
  -10.7965    1.4429    0.1240 H   0  0  0  0  0  0  0  0  0  0  0  0
  -10.0769    0.0663    1.0445 H   0  0  0  0  0  0  0  0  0  0  0  0
  -10.1464    0.0098   -0.7613 H   0  0  0  0  0  0  0  0  0  0  0  0
   -4.0241   -2.4057    0.0015 H   0  0  0  0  0  0  0  0  0  0  0  0
  1 41  1  0  0  0  0
  2 30  1  0  0  0  0
  3 52  1  0  0  0  0
  4  5  1  0  0  0  0
  5 41  2  0  0  0  0
  6 42  1  0  0  0  0
  6 56  1  0  0  0  0
  7  4  1  0  0  0  0
  8  7  1  0  0  0  0
  9 18  1  0  0  0  0
  9  7  1  0  0  0  0
 10  9  2  0  0  0  0
 11 10  1  0  0  0  0
 12 14  2  0  0  0  0
 12 10  1  0  0  0  0
 13 12  1  0  0  0  0
 14 16  1  0  0  0  0
 15 14  1  0  0  0  0
 16 17  1  0  0  0  0
 16 18  2  0  0  0  0
 18  2  1  0  0  0  0
 19 28  1  0  0  0  0
 19  2  1  0  0  0  0
 20 19  2  0  0  0  0
 21 20  1  0  0  0  0
 22 24  2  0  0  0  0
 22 20  1  0  0  0  0
 23 22  1  0  0  0  0
 24 26  1  0  0  0  0
 25 24  1  0  0  0  0
 26 27  1  0  0  0  0
 26 28  2  0  0  0  0
 28 29  1  0  0  0  0
 30 39  2  0  0  0  0
 30 31  1  0  0  0  0
 31 33  2  0  0  0  0
 32 31  1  0  0  0  0
 33 35  1  0  0  0  0
 33 34  1  0  0  0  0
 35 36  1  0  0  0  0
 37 38  1  0  0  0  0
 37 35  2  0  0  0  0
 39 37  1  0  0  0  0
 40 39  1  0  0  0  0
 41  6  1  0  0  0  0
 42 43  1  0  0  0  0
 43 45  2  0  0  0  0
 43 44  1  0  0  0  0
 45 46  1  0  0  0  0
 47  3  1  0  0  0  0
 47 45  1  0  0  0  0
 48 47  2  0  0  0  0
 49 48  1  0  0  0  0
 50 48  1  0  0  0  0
 50 42  2  0  0  0  0
 51 50  1  0  0  0  0
 52 53  1  0  0  0  0
 52 54  1  0  0  0  0
 55 52  1  0  0  0  0
M  END
