1,2
q = 0.0, confidence = 0.994

 65 69  0  0  1  0  0  0  0  0999 V2000
    0.3794   -2.6419    0.5037 Se  0  0  0  0  0  1  0  0  0  0  0  0
    1.2757    0.5461   -0.4188 P   0  0  0  0  0  0  0  0  0  0  0  0
   -1.0866   -1.0346    0.2671 P   0  0  0  0  0  4  0  0  0  0  0  0
   -0.4529    0.2383   -0.7100 N   0  0  0  0  0  0  0  0  0  0  0  0
   -1.1707    1.0838   -1.7278 C   0  0  1  0  0  0  0  0  0  0  0  0
   -1.2537    0.4156   -3.1027 C   0  0  0  0  0  0  0  0  0  0  0  0
   -2.5001    1.6535   -1.2438 C   0  0  0  0  0  0  0  0  0  0  0  0
   -3.7306    1.0121   -1.4911 C   0  0  0  0  0  0  0  0  0  0  0  0
   -4.9314    1.5495   -1.0009 C   0  0  0  0  0  0  0  0  0  0  0  0
   -4.9257    2.7513   -0.2755 C   0  0  0  0  0  0  0  0  0  0  0  0
   -3.7110    3.4241   -0.0631 C   0  0  0  0  0  0  0  0  0  0  0  0
   -2.5134    2.8806   -0.5479 C   0  0  0  0  0  0  0  0  0  0  0  0
    1.3103    2.2278    0.3041 C   0  0  0  0  0  0  0  0  0  0  0  0
    0.3062    2.6107    1.2153 C   0  0  0  0  0  0  0  0  0  0  0  0
    0.3875    3.8414    1.8822 C   0  0  0  0  0  0  0  0  0  0  0  0
    1.4767    4.6962    1.6517 C   0  0  0  0  0  0  0  0  0  0  0  0
    2.4915    4.3081    0.7623 C   0  0  0  0  0  0  0  0  0  0  0  0
    2.4212    3.0756    0.0973 C   0  0  0  0  0  0  0  0  0  0  0  0
    1.9651    0.6844   -2.1124 C   0  0  0  0  0  0  0  0  0  0  0  0
    1.9307    1.8710   -2.8727 C   0  0  0  0  0  0  0  0  0  0  0  0
    2.4076    1.8732   -4.1921 C   0  0  0  0  0  0  0  0  0  0  0  0
    2.9206    0.6954   -4.7580 C   0  0  0  0  0  0  0  0  0  0  0  0
    2.9641   -0.4868   -4.0001 C   0  0  0  0  0  0  0  0  0  0  0  0
    2.4926   -0.4944   -2.6805 C   0  0  0  0  0  0  0  0  0  0  0  0
   -1.5498   -0.3010    1.8801 C   0  0  0  0  0  0  0  0  0  0  0  0
   -0.7280   -0.5499    2.9986 C   0  0  0  0  0  0  0  0  0  0  0  0
   -0.9747    0.1173    4.2073 C   0  0  0  0  0  0  0  0  0  0  0  0
   -2.0443    1.0200    4.3129 C   0  0  0  0  0  0  0  0  0  0  0  0
   -2.8725    1.2585    3.2036 C   0  0  0  0  0  0  0  0  0  0  0  0
   -2.6261    0.6094    1.9855 C   0  0  0  0  0  0  0  0  0  0  0  0
   -2.5550   -1.7935   -0.4969 C   0  0  0  0  0  0  0  0  0  0  0  0
   -3.8044   -1.8495    0.1521 C   0  0  0  0  0  0  0  0  0  0  0  0
   -4.8752   -2.5234   -0.4537 C   0  0  0  0  0  0  0  0  0  0  0  0
   -4.7056   -3.1477   -1.6990 C   0  0  0  0  0  0  0  0  0  0  0  0
   -3.4491   -3.1271   -2.3289 C   0  0  0  0  0  0  0  0  0  0  0  0
   -2.3721   -2.4654   -1.7261 C   0  0  0  0  0  0  0  0  0  0  0  0
   -0.5016    1.9619   -1.8321 H   0  0  0  0  0  0  0  0  0  0  0  0
   -1.6077    1.1520   -3.8513 H   0  0  0  0  0  0  0  0  0  0  0  0
   -0.2579    0.0502   -3.4146 H   0  0  0  0  0  0  0  0  0  0  0  0
   -1.9551   -0.4379   -3.1115 H   0  0  0  0  0  0  0  0  0  0  0  0
   -3.7608    0.0778   -2.0674 H   0  0  0  0  0  0  0  0  0  0  0  0
   -5.8787    1.0232   -1.1930 H   0  0  0  0  0  0  0  0  0  0  0  0
   -5.8679    3.1720    0.1073 H   0  0  0  0  0  0  0  0  0  0  0  0
   -3.6949    4.3803    0.4817 H   0  0  0  0  0  0  0  0  0  0  0  0
   -1.5660    3.4122   -0.3764 H   0  0  0  0  0  0  0  0  0  0  0  0
   -0.5417    1.9426    1.4110 H   0  0  0  0  0  0  0  0  0  0  0  0
   -0.4051    4.1246    2.5915 H   0  0  0  0  0  0  0  0  0  0  0  0
    1.5426    5.6616    2.1761 H   0  0  0  0  0  0  0  0  0  0  0  0
    3.3590    4.9639    0.5941 H   0  0  0  0  0  0  0  0  0  0  0  0
    3.2415    2.7540   -0.5580 H   0  0  0  0  0  0  0  0  0  0  0  0
    1.5380    2.8008   -2.4343 H   0  0  0  0  0  0  0  0  0  0  0  0
    2.3813    2.8033   -4.7799 H   0  0  0  0  0  0  0  0  0  0  0  0
    3.2974    0.7009   -5.7921 H   0  0  0  0  0  0  0  0  0  0  0  0
    3.3795   -1.4082   -4.4350 H   0  0  0  0  0  0  0  0  0  0  0  0
    2.5344   -1.4119   -2.0717 H   0  0  0  0  0  0  0  0  0  0  0  0
    0.1185   -1.2498    2.9108 H   0  0  0  0  0  0  0  0  0  0  0  0
   -0.3178   -0.0707    5.0693 H   0  0  0  0  0  0  0  0  0  0  0  0
   -2.2335    1.5415    5.2634 H   0  0  0  0  0  0  0  0  0  0  0  0
   -3.7131    1.9650    3.2761 H   0  0  0  0  0  0  0  0  0  0  0  0
   -3.2633    0.8323    1.1198 H   0  0  0  0  0  0  0  0  0  0  0  0
   -3.9442   -1.3713    1.1305 H   0  0  0  0  0  0  0  0  0  0  0  0
   -5.8491   -2.5624    0.0567 H   0  0  0  0  0  0  0  0  0  0  0  0
   -5.5496   -3.6715   -2.1724 H   0  0  0  0  0  0  0  0  0  0  0  0
   -3.3029   -3.6422   -3.2900 H   0  0  0  0  0  0  0  0  0  0  0  0
   -1.3758   -2.4833   -2.1926 H   0  0  0  0  0  0  0  0  0  0  0  0
  2 13  1  0  0  0  0
  3  1  1  0  0  0  0
  3 25  1  0  0  0  0
  4  2  1  0  0  0  0
  4  3  1  0  0  0  0
  5 37  1  6  0  0  0
  5  7  1  0  0  0  0
  5  4  1  0  0  0  0
  6  5  1  0  0  0  0
  7 12  1  0  0  0  0
  8  7  2  0  0  0  0
  8  9  1  0  0  0  0
  9 10  2  0  0  0  0
 10 11  1  0  0  0  0
 10 43  1  0  0  0  0
 11 44  1  0  0  0  0
 12 45  1  0  0  0  0
 12 11  2  0  0  0  0
 13 14  1  0  0  0  0
 14 46  1  0  0  0  0
 14 15  2  0  0  0  0
 15 47  1  0  0  0  0
 16 15  1  0  0  0  0
 16 48  1  0  0  0  0
 17 16  2  0  0  0  0
 18 13  2  0  0  0  0
 18 17  1  0  0  0  0
 19  2  1  0  0  0  0
 20 51  1  0  0  0  0
 20 19  2  0  0  0  0
 21 20  1  0  0  0  0
 22 21  2  0  0  0  0
 22 23  1  0  0  0  0
 23 24  2  0  0  0  0
 24 19  1  0  0  0  0
 24 55  1  0  0  0  0
 25 30  2  0  0  0  0
 25 26  1  0  0  0  0
 26 27  2  0  0  0  0
 27 28  1  0  0  0  0
 27 57  1  0  0  0  0
 28 58  1  0  0  0  0
 29 59  1  0  0  0  0
 29 28  2  0  0  0  0
 30 29  1  0  0  0  0
 31 32  1  0  0  0  0
 31  3  1  0  0  0  0
 32 61  1  0  0  0  0
 33 62  1  0  0  0  0
 33 32  2  0  0  0  0
 34 33  1  0  0  0  0
 35 36  1  0  0  0  0
 35 34  2  0  0  0  0
 36 31  2  0  0  0  0
 38  6  1  0  0  0  0
 39  6  1  0  0  0  0
 40  6  1  0  0  0  0
 41  8  1  0  0  0  0
 42  9  1  0  0  0  0
 49 17  1  0  0  0  0
 50 18  1  0  0  0  0
 52 21  1  0  0  0  0
 53 22  1  0  0  0  0
 54 23  1  0  0  0  0
 56 26  1  0  0  0  0
 60 30  1  0  0  0  0
 63 34  1  0  0  0  0
 64 35  1  0  0  0  0
 65 36  1  0  0  0  0
M  END
