1,26
 OpenBabel05122313063D

 52 55  0  0  0  0  0  0  0  0999 V2000
    1.0606    0.3150    2.1364 Se  0  0  0  0  0  1  0  0  0  0  0  0
    1.7472    0.0710    0.0804 P   0  0  0  0  0  4  0  0  0  0  0  0
    0.4596    0.2043   -1.0321 N   0  0  0  0  0  0  0  0  0  0  0  0
    2.5403   -1.5461   -0.2054 C   0  0  0  0  0  0  0  0  0  0  0  0
    3.8589   -1.7870    0.2359 C   0  0  0  0  0  0  0  0  0  0  0  0
    4.4487   -0.9759    0.6899 H   0  0  0  0  0  0  0  0  0  0  0  0
    4.4137   -3.0673    0.1059 C   0  0  0  0  0  0  0  0  0  0  0  0
    5.4425   -3.2528    0.4495 H   0  0  0  0  0  0  0  0  0  0  0  0
    3.6571   -4.1123   -0.4514 C   0  0  0  0  0  0  0  0  0  0  0  0
    4.0958   -5.1169   -0.5480 H   0  0  0  0  0  0  0  0  0  0  0  0
    2.3397   -3.8768   -0.8745 C   0  0  0  0  0  0  0  0  0  0  0  0
    1.7376   -4.6938   -1.2999 H   0  0  0  0  0  0  0  0  0  0  0  0
    1.7778   -2.5981   -0.7517 C   0  0  0  0  0  0  0  0  0  0  0  0
    0.7375   -2.4217   -1.0626 H   0  0  0  0  0  0  0  0  0  0  0  0
    2.9534    1.3562   -0.4141 C   0  0  0  0  0  0  0  0  0  0  0  0
    2.7831    2.6502    0.1208 C   0  0  0  0  0  0  0  0  0  0  0  0
    1.9938    2.8205    0.8712 H   0  0  0  0  0  0  0  0  0  0  0  0
    3.6274    3.6909   -0.2892 C   0  0  0  0  0  0  0  0  0  0  0  0
    3.4951    4.6983    0.1331 H   0  0  0  0  0  0  0  0  0  0  0  0
    4.6447    3.4461   -1.2270 C   0  0  0  0  0  0  0  0  0  0  0  0
    5.3105    4.2639   -1.5420 H   0  0  0  0  0  0  0  0  0  0  0  0
    4.8175    2.1585   -1.7588 C   0  0  0  0  0  0  0  0  0  0  0  0
    5.6163    1.9650   -2.4905 H   0  0  0  0  0  0  0  0  0  0  0  0
    3.9731    1.1115   -1.3580 C   0  0  0  0  0  0  0  0  0  0  0  0
    4.1128    0.1024   -1.7738 H   0  0  0  0  0  0  0  0  0  0  0  0
   -1.2042    0.0709   -0.4471 P   0  0  0  0  0  0  0  0  0  0  0  0
   -1.9914    1.4809   -1.3242 C   0  0  0  0  0  0  0  0  0  0  0  0
   -3.3568    1.4250   -1.6734 C   0  0  0  0  0  0  0  0  0  0  0  0
   -3.9302    0.4993   -1.5128 H   0  0  0  0  0  0  0  0  0  0  0  0
   -3.9918    2.5547   -2.2101 C   0  0  0  0  0  0  0  0  0  0  0  0
   -5.0584    2.5037   -2.4764 H   0  0  0  0  0  0  0  0  0  0  0  0
   -3.2731    3.7453   -2.4030 C   0  0  0  0  0  0  0  0  0  0  0  0
   -3.7740    4.6297   -2.8249 H   0  0  0  0  0  0  0  0  0  0  0  0
   -1.9155    3.8073   -2.0475 C   0  0  0  0  0  0  0  0  0  0  0  0
   -1.3499    4.7410   -2.1880 H   0  0  0  0  0  0  0  0  0  0  0  0
   -1.2776    2.6837   -1.5040 C   0  0  0  0  0  0  0  0  0  0  0  0
   -0.2183    2.7349   -1.2072 H   0  0  0  0  0  0  0  0  0  0  0  0
   -1.8086   -1.4235   -1.3498 C   0  0  0  0  0  0  0  0  0  0  0  0
   -1.9131   -2.6167   -0.6035 C   0  0  0  0  0  0  0  0  0  0  0  0
   -1.7088   -2.5773    0.4804 H   0  0  0  0  0  0  0  0  0  0  0  0
   -2.2789   -3.8149   -1.2345 C   0  0  0  0  0  0  0  0  0  0  0  0
   -2.3632   -4.7396   -0.6437 H   0  0  0  0  0  0  0  0  0  0  0  0
   -2.5502   -3.8293   -2.6125 C   0  0  0  0  0  0  0  0  0  0  0  0
   -2.8434   -4.7680   -3.1071 H   0  0  0  0  0  0  0  0  0  0  0  0
   -2.4615   -2.6421   -3.3582 C   0  0  0  0  0  0  0  0  0  0  0  0
   -2.6864   -2.6494   -4.4357 H   0  0  0  0  0  0  0  0  0  0  0  0
   -2.0922   -1.4422   -2.7316 C   0  0  0  0  0  0  0  0  0  0  0  0
   -2.0419   -0.5127   -3.3183 H   0  0  0  0  0  0  0  0  0  0  0  0
    0.7533    0.1865   -2.4687 C   0  0  0  0  0  0  0  0  0  0  0  0
   -0.0116    0.7814   -3.0052 H   0  0  0  0  0  0  0  0  0  0  0  0
    0.7668   -0.8423   -2.8877 H   0  0  0  0  0  0  0  0  0  0  0  0
    1.7340    0.6639   -2.6638 H   0  0  0  0  0  0  0  0  0  0  0  0
  2  1  1  0  0  0  0
  3 26  1  0  0  0  0
  3  2  1  0  0  0  0
  4  2  1  0  0  0  0
  4  5  1  0  0  0  0
  5  6  1  0  0  0  0
  7  5  2  0  0  0  0
  7  8  1  0  0  0  0
  9  7  1  0  0  0  0
 10  9  1  0  0  0  0
 11 13  1  0  0  0  0
 11  9  2  0  0  0  0
 12 11  1  0  0  0  0
 13  4  2  0  0  0  0
 14 13  1  0  0  0  0
 15  2  1  0  0  0  0
 15 16  1  0  0  0  0
 16 17  1  0  0  0  0
 18 16  2  0  0  0  0
 18 19  1  0  0  0  0
 20 18  1  0  0  0  0
 21 20  1  0  0  0  0
 22 24  1  0  0  0  0
 22 20  2  0  0  0  0
 23 22  1  0  0  0  0
 24 15  2  0  0  0  0
 25 24  1  0  0  0  0
 27 26  1  0  0  0  0
 28 29  1  0  0  0  0
 28 27  2  0  0  0  0
 30 28  1  0  0  0  0
 31 30  1  0  0  0  0
 32 30  2  0  0  0  0
 32 34  1  0  0  0  0
 33 32  1  0  0  0  0
 34 36  2  0  0  0  0
 35 34  1  0  0  0  0
 36 27  1  0  0  0  0
 36 37  1  0  0  0  0
 38 39  1  0  0  0  0
 38 26  1  0  0  0  0
 39 40  1  0  0  0  0
 41 42  1  0  0  0  0
 41 39  2  0  0  0  0
 43 41  1  0  0  0  0
 44 43  1  0  0  0  0
 45 47  1  0  0  0  0
 45 43  2  0  0  0  0
 46 45  1  0  0  0  0
 47 38  2  0  0  0  0
 48 47  1  0  0  0  0
 49  3  1  0  0  0  0
 50 49  1  0  0  0  0
 51 49  1  0  0  0  0
 52 49  1  0  0  0  0
M  END
