1
q = -1.0, confidence = 0.01

 16 15  0  0  0  0  0  0  0  0999 V2000
    2.0246   -0.2472   -0.1784 O   0  5  0  0  0  0  0  0  0  0  0  0
    2.7510    1.7419    0.6386 O   0  0  0  0  0  0  0  0  0  0  0  0
    2.9417    0.5936    0.1853 C   0  0  0  0  0  0  0  0  0  0  0  0
    4.4009    0.0919    0.0157 C   0  0  0  0  0  0  0  0  0  0  0  0
    4.4721   -1.3070   -0.6096 C   0  0  0  0  0  0  0  0  0  0  0  0
    5.5308   -1.6174   -0.7282 H   0  0  0  0  0  0  0  0  0  0  0  0
    3.9646   -2.0586    0.0262 H   0  0  0  0  0  0  0  0  0  0  0  0
    3.9908   -1.3292   -1.6071 H   0  0  0  0  0  0  0  0  0  0  0  0
    5.1311    1.1137   -0.8785 C   0  0  0  0  0  0  0  0  0  0  0  0
    6.2029    0.8446   -0.9779 H   0  0  0  0  0  0  0  0  0  0  0  0
    4.6903    1.1401   -1.8967 H   0  0  0  0  0  0  0  0  0  0  0  0
    5.0561    2.1287   -0.4434 H   0  0  0  0  0  0  0  0  0  0  0  0
    5.0379    0.0817    1.4205 C   0  0  0  0  0  0  0  0  0  0  0  0
    6.1081   -0.2046    1.3564 H   0  0  0  0  0  0  0  0  0  0  0  0
    4.9644    1.0838    1.8853 H   0  0  0  0  0  0  0  0  0  0  0  0
    4.5284   -0.6465    2.0849 H   0  0  0  0  0  0  0  0  0  0  0  0
  1  3  1  0  0  0  0
  3  2  2  0  0  0  0
  4  3  1  0  0  0  0
  4 13  1  0  0  0  0
  5  4  1  0  0  0  0
  5  7  1  0  0  0  0
  6  5  1  0  0  0  0
  8  5  1  0  0  0  0
  9 12  1  0  0  0  0
  9  4  1  0  0  0  0
 10  9  1  0  0  0  0
 11  9  1  0  0  0  0
 13 15  1  0  0  0  0
 13 16  1  0  0  0  0
 14 13  1  0  0  0  0
M  CHG  1   1  -1
M  END
