2
q = 0.0, confidence = 0.994

 35 37  0  0  0  0  0  0  0  0999 V2000
   -2.3534    0.1084   -0.1002 P   0  0  0  0  0  4  0  0  0  0  0  0
   -1.3853   -0.9152   -0.7297 O   0  0  0  0  0  1  0  0  0  0  0  0
   -3.8561   -0.7038    0.5211 C   0  0  0  0  0  0  0  0  0  0  0  0
   -3.9925   -2.0911    0.3197 C   0  0  0  0  0  0  0  0  0  0  0  0
   -3.1838   -2.6605   -0.1628 H   0  0  0  0  0  0  0  0  0  0  0  0
   -5.1586   -2.7347    0.7611 C   0  0  0  0  0  0  0  0  0  0  0  0
   -5.2645   -3.8199    0.6132 H   0  0  0  0  0  0  0  0  0  0  0  0
   -6.1771   -2.0054    1.3938 C   0  0  0  0  0  0  0  0  0  0  0  0
   -7.0877   -2.5182    1.7394 H   0  0  0  0  0  0  0  0  0  0  0  0
   -6.0363   -0.6213    1.5928 C   0  0  0  0  0  0  0  0  0  0  0  0
   -6.8329   -0.0497    2.0926 H   0  0  0  0  0  0  0  0  0  0  0  0
   -4.8759    0.0328    1.1575 C   0  0  0  0  0  0  0  0  0  0  0  0
   -4.7627    1.1154    1.3236 H   0  0  0  0  0  0  0  0  0  0  0  0
   -1.6933    1.1436    1.2444 C   0  0  0  0  0  0  0  0  0  0  0  0
   -1.8725    0.7531    2.5886 C   0  0  0  0  0  0  0  0  0  0  0  0
   -2.4342   -0.1619    2.8218 H   0  0  0  0  0  0  0  0  0  0  0  0
   -1.3074    1.5193    3.6168 C   0  0  0  0  0  0  0  0  0  0  0  0
   -1.4457    1.2095    4.6636 H   0  0  0  0  0  0  0  0  0  0  0  0
   -0.5578    2.6674    3.3127 C   0  0  0  0  0  0  0  0  0  0  0  0
   -0.1071    3.2607    4.1227 H   0  0  0  0  0  0  0  0  0  0  0  0
   -0.3749    3.0541    1.9762 C   0  0  0  0  0  0  0  0  0  0  0  0
    0.2168    3.9481    1.7310 H   0  0  0  0  0  0  0  0  0  0  0  0
   -0.9396    2.2961    0.9405 C   0  0  0  0  0  0  0  0  0  0  0  0
   -0.7914    2.6025   -0.1052 H   0  0  0  0  0  0  0  0  0  0  0  0
   -2.8299    1.2284   -1.4584 C   0  0  0  0  0  0  0  0  0  0  0  0
   -2.5502    0.7899   -2.7685 C   0  0  0  0  0  0  0  0  0  0  0  0
   -2.0265   -0.1689   -2.9103 H   0  0  0  0  0  0  0  0  0  0  0  0
   -2.9179    1.5909   -3.8600 C   0  0  0  0  0  0  0  0  0  0  0  0
   -2.7011    1.2488   -4.8834 H   0  0  0  0  0  0  0  0  0  0  0  0
   -3.5535    2.8253   -3.6483 C   0  0  0  0  0  0  0  0  0  0  0  0
   -3.8375    3.4528   -4.5069 H   0  0  0  0  0  0  0  0  0  0  0  0
   -3.8265    3.2628   -2.3413 C   0  0  0  0  0  0  0  0  0  0  0  0
   -4.3194    4.2326   -2.1750 H   0  0  0  0  0  0  0  0  0  0  0  0
   -3.4693    2.4651   -1.2445 C   0  0  0  0  0  0  0  0  0  0  0  0
   -3.6732    2.8166   -0.2214 H   0  0  0  0  0  0  0  0  0  0  0  0
  1  3  1  0  0  0  0
  1 14  1  0  0  0  0
  2  1  1  0  0  0  0
  3 12  1  0  0  0  0
  4  3  2  0  0  0  0
  4  6  1  0  0  0  0
  5  4  1  0  0  0  0
  6  8  2  0  0  0  0
  7  6  1  0  0  0  0
  8 10  1  0  0  0  0
  8  9  1  0  0  0  0
 10 11  1  0  0  0  0
 12 13  1  0  0  0  0
 12 10  2  0  0  0  0
 14 15  1  0  0  0  0
 15 16  1  0  0  0  0
 15 17  2  0  0  0  0
 17 18  1  0  0  0  0
 19 17  1  0  0  0  0
 19 20  1  0  0  0  0
 21 19  2  0  0  0  0
 22 21  1  0  0  0  0
 23 14  2  0  0  0  0
 23 21  1  0  0  0  0
 24 23  1  0  0  0  0
 25 34  1  0  0  0  0
 25  1  1  0  0  0  0
 26 25  2  0  0  0  0
 27 26  1  0  0  0  0
 28 30  2  0  0  0  0
 28 26  1  0  0  0  0
 29 28  1  0  0  0  0
 30 32  1  0  0  0  0
 31 30  1  0  0  0  0
 32 33  1  0  0  0  0
 32 34  2  0  0  0  0
 34 35  1  0  0  0  0
M  END
