6
q = 0.0, confidence = 0.984

 19 18  0  0  1  0  0  0  0  0999 V2000
   -4.7873    1.6115    0.8180 N   0  0  0  0  0  0  0  0  0  0  0  0
   -5.7090    1.1643    0.8867 H   0  0  0  0  0  0  0  0  0  0  0  0
   -3.8007    1.8049   -0.5990 H   0  0  0  0  0  0  0  0  0  0  0  0
   -4.8215    2.4782    1.3672 H   0  0  0  0  0  0  0  0  0  0  0  0
   -2.8080    1.6018   -0.7458 O   0  0  0  0  0  0  0  0  0  0  0  0
   -1.3672    0.6017    0.6661 O   0  0  0  0  0  1  0  0  0  0  0  0
   -3.7124    0.7157    1.2784 C   0  0  1  0  0  0  0  0  0  0  0  0
   -3.3979    0.9075    2.3270 H   0  0  0  0  0  0  0  0  0  0  0  0
   -4.1422   -0.7789    1.1742 C   0  0  0  0  0  0  0  0  0  0  0  0
   -5.0394   -0.8427    1.8353 H   0  0  0  0  0  0  0  0  0  0  0  0
   -2.5033    0.9844    0.3748 C   0  0  2  0  0  3  0  0  0  0  0  0
   -3.0753   -1.7321    1.7252 C   0  0  0  0  0  0  0  0  0  0  0  0
   -3.4982   -2.7534    1.8063 H   0  0  0  0  0  0  0  0  0  0  0  0
   -2.7233   -1.4248    2.7307 H   0  0  0  0  0  0  0  0  0  0  0  0
   -2.2016   -1.7847    1.0455 H   0  0  0  0  0  0  0  0  0  0  0  0
   -4.5479   -1.1759   -0.2530 C   0  0  0  0  0  0  0  0  0  0  0  0
   -5.3169   -0.5039   -0.6855 H   0  0  0  0  0  0  0  0  0  0  0  0
   -4.9698   -2.2006   -0.2510 H   0  0  0  0  0  0  0  0  0  0  0  0
   -3.6645   -1.1888   -0.9265 H   0  0  0  0  0  0  0  0  0  0  0  0
  1  2  1  0  0  0  0
  1  7  1  0  0  0  0
  1  4  1  0  0  0  0
  5  3  1  0  0  0  0
  5 11  1  0  0  0  0
  7  8  1  1  0  0  0
  9  7  1  0  0  0  0
  9 12  1  0  0  0  0
  9 10  1  0  0  0  0
 11  6  1  6  0  0  0
 11  7  1  0  0  0  0
 12 13  1  0  0  0  0
 12 14  1  0  0  0  0
 15 12  1  0  0  0  0
 16 18  1  0  0  0  0
 16  9  1  0  0  0  0
 17 16  1  0  0  0  0
 19 16  1  0  0  0  0
M  END
