1
q = -1.0, confidence = 0.0

 23 23  0  0  1  0  0  0  0  0999 V2000
    0.3517    1.3692    0.5415 O   0  5  0  0  0  0  0  0  0  0  0  0
   -0.3879    2.1507   -0.1883 C   0  0  0  0  0  0  0  0  0  0  0  0
   -0.2331    2.3988   -1.3900 O   0  0  0  0  0  0  0  0  0  0  0  0
   -1.6206    2.7174    0.5686 C   0  0  2  0  0  0  0  0  0  0  0  0
   -1.8316    3.6899    0.0763 H   0  0  0  0  0  0  0  0  0  0  0  0
   -1.3625    2.9510    2.0603 C   0  0  0  0  0  0  0  0  0  0  0  0
   -2.3163    3.2534    2.5450 H   0  0  0  0  0  0  0  0  0  0  0  0
   -1.0525    1.9918    2.5240 H   0  0  0  0  0  0  0  0  0  0  0  0
   -0.2829    4.0029    2.3172 C   0  0  0  0  0  0  0  0  0  0  0  0
   -0.1292    4.1675    3.4026 H   0  0  0  0  0  0  0  0  0  0  0  0
   -0.5522    4.9800    1.8643 H   0  0  0  0  0  0  0  0  0  0  0  0
    0.6875    3.6852    1.8853 H   0  0  0  0  0  0  0  0  0  0  0  0
   -2.7802    1.7850    0.2468 C   0  0  0  0  0  0  0  0  0  0  0  0
   -3.3418    1.8080   -1.0494 C   0  0  0  0  0  0  0  0  0  0  0  0
   -2.9163    2.4987   -1.7930 H   0  0  0  0  0  0  0  0  0  0  0  0
   -4.4034    0.9601   -1.3913 C   0  0  0  0  0  0  0  0  0  0  0  0
   -4.8326    1.0050   -2.4046 H   0  0  0  0  0  0  0  0  0  0  0  0
   -4.9273    0.0641   -0.4437 C   0  0  0  0  0  0  0  0  0  0  0  0
   -5.7719   -0.5923   -0.7052 H   0  0  0  0  0  0  0  0  0  0  0  0
   -4.3660    0.0184    0.8410 C   0  0  0  0  0  0  0  0  0  0  0  0
   -4.7624   -0.6834    1.5910 H   0  0  0  0  0  0  0  0  0  0  0  0
   -3.2988    0.8655    1.1813 C   0  0  0  0  0  0  0  0  0  0  0  0
   -2.8722    0.8157    2.1932 H   0  0  0  0  0  0  0  0  0  0  0  0
  2  1  1  0  0  0  0
  2  4  1  0  0  0  0
  3  2  2  0  0  0  0
  4  5  1  6  0  0  0
  4  6  1  0  0  0  0
  6  9  1  0  0  0  0
  6  8  1  0  0  0  0
  6  7  1  0  0  0  0
  9 10  1  0  0  0  0
 11  9  1  0  0  0  0
 12  9  1  0  0  0  0
 13  4  1  0  0  0  0
 13 22  1  0  0  0  0
 14 13  2  0  0  0  0
 15 14  1  0  0  0  0
 16 14  1  0  0  0  0
 16 18  2  0  0  0  0
 17 16  1  0  0  0  0
 18 20  1  0  0  0  0
 19 18  1  0  0  0  0
 20 22  2  0  0  0  0
 20 21  1  0  0  0  0
 22 23  1  0  0  0  0
M  CHG  1   1  -1
M  END
