5
q = -1.0, confidence = 0.034

  5  4  0  0  0  0  0  0  0  0999 V2000
   -0.0887    4.1153   -1.8024 C   0  0  0  0  0  0  0  0  0  0  0  0
    0.2498    3.6921   -2.7749 H   0  0  0  0  0  0  0  0  0  0  0  0
    0.3888    5.1081   -1.6470 H   0  0  0  0  0  0  0  0  0  0  0  0
   -1.1906    4.2700   -1.8433 H   0  0  0  0  0  0  0  0  0  0  0  0
    0.2360    3.2693   -0.7317 O   0  0  0  0  0  1  0  0  0  0  0  0
  1  3  1  0  0  0  0
  1  5  1  0  0  0  0
  2  1  1  0  0  0  0
  4  1  1  0  0  0  0
M  END
