1
q = 0.0, confidence = 0.994

 24 25  0  0  0  0  0  0  0  0999 V2000
    1.0680   -0.0916   -0.0278 O   0  0  0  0  0  1  0  0  0  0  0  0
    2.3223   -0.0355   -0.0415 C   0  0  0  0  0  3  0  0  0  0  0  0
    2.9965    1.2448   -0.3541 C   0  0  0  0  0  0  0  0  0  0  0  0
    2.2898    2.2252   -1.0913 C   0  0  0  0  0  0  0  0  0  0  0  0
    1.2695    2.0170   -1.4521 H   0  0  0  0  0  0  0  0  0  0  0  0
    2.8745    3.4698   -1.3449 C   0  0  0  0  0  0  0  0  0  0  0  0
    2.3130    4.2192   -1.9224 H   0  0  0  0  0  0  0  0  0  0  0  0
    4.1587    3.7627   -0.8543 C   0  0  0  0  0  0  0  0  0  0  0  0
    4.6126    4.7465   -1.0488 H   0  0  0  0  0  0  0  0  0  0  0  0
    4.8589    2.8043   -0.1016 C   0  0  0  0  0  0  0  0  0  0  0  0
    5.8538    3.0403    0.3048 H   0  0  0  0  0  0  0  0  0  0  0  0
    4.2871    1.5505    0.1452 C   0  0  0  0  0  0  0  0  0  0  0  0
    4.8240    0.8176    0.7643 H   0  0  0  0  0  0  0  0  0  0  0  0
    3.0916   -1.2688    0.2646 C   0  0  0  0  0  0  0  0  0  0  0  0
    4.3452   -1.5371   -0.3333 C   0  0  0  0  0  0  0  0  0  0  0  0
    4.7852   -0.8087   -1.0291 H   0  0  0  0  0  0  0  0  0  0  0  0
    5.0024   -2.7489   -0.0818 C   0  0  0  0  0  0  0  0  0  0  0  0
    5.9685   -2.9559   -0.5659 H   0  0  0  0  0  0  0  0  0  0  0  0
    4.4265   -3.7002    0.7757 C   0  0  0  0  0  0  0  0  0  0  0  0
    4.9483   -4.6482    0.9762 H   0  0  0  0  0  0  0  0  0  0  0  0
    3.1774   -3.4448    1.3691 C   0  0  0  0  0  0  0  0  0  0  0  0
    2.7190   -4.1906    2.0357 H   0  0  0  0  0  0  0  0  0  0  0  0
    2.5100   -2.2453    1.1055 C   0  0  0  0  0  0  0  0  0  0  0  0
    1.5246   -2.0418    1.5461 H   0  0  0  0  0  0  0  0  0  0  0  0
  2  1  1  0  0  0  0
  2 14  1  0  0  0  0
  3  2  1  0  0  0  0
  3 12  1  0  0  0  0
  4  3  2  0  0  0  0
  5  4  1  0  0  0  0
  6  4  1  0  0  0  0
  6  8  2  0  0  0  0
  7  6  1  0  0  0  0
  8 10  1  0  0  0  0
  9  8  1  0  0  0  0
 10 12  2  0  0  0  0
 10 11  1  0  0  0  0
 12 13  1  0  0  0  0
 14 23  1  0  0  0  0
 15 17  1  0  0  0  0
 15 14  2  0  0  0  0
 16 15  1  0  0  0  0
 17 19  2  0  0  0  0
 18 17  1  0  0  0  0
 19 20  1  0  0  0  0
 19 21  1  0  0  0  0
 21 22  1  0  0  0  0
 23 21  2  0  0  0  0
 23 24  1  0  0  0  0
M  END
