1
q = 0.0, confidence = 1.0

 19 19  0  0  1  0  0  0  0  0999 V2000
   -1.3425    0.1487    0.8343 O   0  0  0  0  0  1  0  0  0  0  0  0
   -2.9177    0.7559   -0.6750 N   0  0  0  0  0  0  0  0  0  0  0  0
   -2.5434    0.4346    0.5712 C   0  0  1  0  0  3  0  0  0  0  0  0
   -3.5803    0.3861    1.6733 C   0  0  0  0  0  0  0  0  0  0  0  0
   -4.0858    1.3747    1.7456 H   0  0  0  0  0  0  0  0  0  0  0  0
   -3.0189    0.2334    2.6132 H   0  0  0  0  0  0  0  0  0  0  0  0
   -4.6347   -0.7229    1.4836 C   0  0  0  0  0  0  0  0  0  0  0  0
   -4.1184   -1.6704    1.2148 H   0  0  0  0  0  0  0  0  0  0  0  0
   -5.1171   -0.9068    2.4657 H   0  0  0  0  0  0  0  0  0  0  0  0
   -5.7270   -0.4042    0.4553 C   0  0  0  0  0  0  0  0  0  0  0  0
   -6.4672   -1.2315    0.4507 H   0  0  0  0  0  0  0  0  0  0  0  0
   -6.2833    0.4983    0.7975 H   0  0  0  0  0  0  0  0  0  0  0  0
   -5.2395   -0.1631   -0.9788 C   0  0  0  0  0  0  0  0  0  0  0  0
   -6.1203    0.0271   -1.6276 H   0  0  0  0  0  0  0  0  0  0  0  0
   -4.7443   -1.0739   -1.3803 H   0  0  0  0  0  0  0  0  0  0  0  0
   -4.2748    1.0205   -1.1345 C   0  0  0  0  0  0  0  0  0  0  0  0
   -4.1847    1.2946   -2.2033 H   0  0  0  0  0  0  0  0  0  0  0  0
   -4.6857    1.9158   -0.6146 H   0  0  0  0  0  0  0  0  0  0  0  0
   -2.1556    0.6882   -1.3908 H   0  0  0  0  0  0  0  0  0  0  0  0
  2  3  1  0  0  0  0
  3  1  1  6  0  0  0
  3  4  1  0  0  0  0
  4  5  1  0  0  0  0
  4  6  1  0  0  0  0
  7  4  1  0  0  0  0
  7  9  1  0  0  0  0
  8  7  1  0  0  0  0
 10 12  1  0  0  0  0
 10  7  1  0  0  0  0
 11 10  1  0  0  0  0
 13 10  1  0  0  0  0
 14 13  1  0  0  0  0
 15 13  1  0  0  0  0
 16 13  1  0  0  0  0
 16  2  1  0  0  0  0
 16 18  1  0  0  0  0
 17 16  1  0  0  0  0
 19  2  1  0  0  0  0
M  END
