1
q = -1.0, confidence = 0.002

  8  7  0  0  0  0  0  0  0  0999 V2000
    1.5060   -0.2324   -1.0400 O   0  0  0  0  0  0  0  0  0  0  0  0
    0.9137   -2.3150    0.2601 O   0  0  0  0  0  0  0  0  0  0  0  0
    2.0159   -2.4646   -2.0515 O   0  0  0  0  0  0  0  0  0  0  0  0
    1.7820   -1.7425   -0.7925 S   0  0  0  0  0  0  0  0  0  0  0  0
    3.4832   -1.6221    0.0241 C   0  0  0  0  0  0  0  0  0  0  0  0
    3.3733   -1.1435    1.2894 F   0  0  0  0  0  0  0  0  0  0  0  0
    4.0584   -2.8267    0.0803 F   0  0  0  0  0  0  0  0  0  0  0  0
    4.2946   -0.7858   -0.6575 F   0  0  0  0  0  0  0  0  0  0  0  0
  1  4  1  0  0  0  0
  3  4  1  0  0  0  0
  4  5  1  0  0  0  0
  4  2  1  0  0  0  0
  5  7  1  0  0  0  0
  5  6  1  0  0  0  0
  8  5  1  0  0  0  0
M  END
