2
q = -1.0, confidence = 0.006

 22 24  0  0  0  0  0  0  0  0999 V2000
   -3.6329    1.6681   -1.2908 Se  0  0  0  0  0  0  0  0  0  0  0  0
    1.3080    0.0059   -1.1798 O   0  5  0  0  0  0  0  0  0  0  0  0
   -8.6659    0.7644   -0.3021 O   0  0  0  0  0  0  0  0  0  0  0  0
   -3.9464   -1.5165   -1.9117 N   0  0  0  0  0  0  0  0  0  0  0  0
    0.0563   -0.2638   -1.5514 C   0  0  0  0  0  0  0  0  0  0  0  0
   -0.9703    0.7027   -1.4044 C   0  0  0  0  0  0  0  0  0  0  0  0
   -0.6934    1.7123   -1.0697 H   0  0  0  0  0  0  0  0  0  0  0  0
   -2.3109    0.3438   -1.5696 C   0  0  0  0  0  0  0  0  0  0  0  0
   -5.1587    0.5438   -1.1657 C   0  0  0  0  0  0  0  0  0  0  0  0
   -6.3559    1.0804   -0.7621 C   0  0  0  0  0  3  0  0  0  0  0  0
   -6.4497    2.1356   -0.4611 H   0  0  0  0  0  0  0  0  0  0  0  0
   -7.5882    0.2850   -0.6894 C   0  0  0  0  0  0  0  0  0  0  0  0
   -7.4595   -1.1267   -1.1085 C   0  0  0  0  0  0  0  0  0  0  0  0
   -8.3792   -1.7302   -1.0722 H   0  0  0  0  0  0  0  0  0  0  0  0
   -6.2685   -1.6505   -1.5132 C   0  0  0  0  0  0  0  0  0  0  0  0
   -6.1627   -2.7019   -1.8217 H   0  0  0  0  0  0  0  0  0  0  0  0
   -5.0401   -0.8687   -1.5516 C   0  0  0  0  0  0  0  0  0  0  0  0
   -2.6813   -0.9980   -1.9082 C   0  0  0  0  0  0  0  0  0  0  0  0
   -1.6203   -1.9033   -2.2089 C   0  0  0  0  0  3  0  0  0  0  0  0
   -1.9122   -2.9207   -2.5071 H   0  0  0  0  0  0  0  0  0  0  0  0
   -0.2884   -1.5500   -2.0591 C   0  0  0  0  0  0  0  0  0  0  0  0
    0.5149   -2.2763   -2.2434 H   0  0  0  0  0  0  0  0  0  0  0  0
  1  9  1  0  0  0  0
  4 18  2  0  0  0  0
  4 17  1  0  0  0  0
  5  6  1  0  0  0  0
  5  2  1  0  0  0  0
  6  7  1  0  0  0  0
  8  6  2  0  0  0  0
  8  1  1  0  0  0  0
  9 10  1  0  0  0  0
 10 12  1  0  0  0  0
 10 11  1  0  0  0  0
 12  3  2  0  0  0  0
 13 14  1  0  0  0  0
 13 12  1  0  0  0  0
 15 13  2  0  0  0  0
 16 15  1  0  0  0  0
 17 15  1  0  0  0  0
 17  9  2  0  0  0  0
 18  8  1  0  0  0  0
 19 21  1  0  0  0  0
 19 18  1  0  0  0  0
 20 19  1  0  0  0  0
 21  5  2  0  0  0  0
 22 21  1  0  0  0  0
M  CHG  1   2  -1
M  END
