3
q = -1.0, confidence = 0.058

 30 30  0  0  0  0  0  0  0  0999 V2000
    1.7809   -3.9847    0.3290 Cl  0  0  0  0  0  0  0  0  0  0  0  0
    3.7935   -2.1115    1.8489 Cl  0  0  0  0  0  0  0  0  0  0  0  0
   -0.4504   -1.4301   -0.4265 O   0  5  0  0  0  0  0  0  0  0  0  0
   -2.0985   -0.8632   -1.7719 O   0  0  0  0  0  0  0  0  0  0  0  0
    0.8413   -2.9541   -2.2021 O   0  0  0  0  0  0  0  0  0  0  0  0
    4.1214    0.9219    1.5713 O   0  0  0  0  0  0  0  0  0  0  0  0
   -1.0261   -1.5157   -1.5708 C   0  0  0  0  0  0  0  0  0  0  0  0
   -0.3544   -2.3395   -2.6605 C   0  0  0  0  0  0  0  0  0  0  0  0
   -1.0265   -3.1597   -2.9820 H   0  0  0  0  0  0  0  0  0  0  0  0
   -0.1983   -1.6807   -3.5453 H   0  0  0  0  0  0  0  0  0  0  0  0
    1.7874   -2.1376   -1.6513 C   0  0  0  0  0  0  0  0  0  0  0  0
    2.3296   -2.5172   -0.3969 C   0  0  0  0  0  0  0  0  0  0  0  0
    3.2167   -1.6555    0.2763 C   0  0  0  0  0  0  0  0  0  0  0  0
    3.6359   -0.4429   -0.3235 C   0  0  0  0  0  0  0  0  0  0  0  0
    3.1521   -0.1336   -1.6105 C   0  0  0  0  0  0  0  0  0  0  0  0
    3.4819    0.7999   -2.0872 H   0  0  0  0  0  0  0  0  0  0  0  0
    2.2275   -0.9540   -2.2629 C   0  0  0  0  0  0  0  0  0  0  0  0
    1.8224   -0.6629   -3.2422 H   0  0  0  0  0  0  0  0  0  0  0  0
    4.4293    0.5923    0.4259 C   0  0  0  0  0  0  0  0  0  0  0  0
    5.5863    1.2614   -0.2627 C   0  0  0  0  0  0  0  0  0  0  0  0
    6.2276    0.6556   -1.2896 C   0  0  0  0  0  0  0  0  0  0  0  0
    5.8971   -0.3184   -1.6813 H   0  0  0  0  0  0  0  0  0  0  0  0
    7.1224    1.1092   -1.7463 H   0  0  0  0  0  0  0  0  0  0  0  0
    6.0240    2.5767    0.3332 C   0  0  0  0  0  0  0  0  0  0  0  0
    7.0225    2.8471   -0.0661 H   0  0  0  0  0  0  0  0  0  0  0  0
    6.1270    2.4338    1.4295 H   0  0  0  0  0  0  0  0  0  0  0  0
    5.0229    3.7121    0.0749 C   0  0  0  0  0  0  0  0  0  0  0  0
    4.8827    3.8878   -1.0114 H   0  0  0  0  0  0  0  0  0  0  0  0
    5.3711    4.6604    0.5305 H   0  0  0  0  0  0  0  0  0  0  0  0
    4.0346    3.4742    0.5170 H   0  0  0  0  0  0  0  0  0  0  0  0
  4  7  2  0  0  0  0
  5 11  1  0  0  0  0
  7  3  1  0  0  0  0
  8  5  1  0  0  0  0
  8  7  1  0  0  0  0
  9  8  1  0  0  0  0
 10  8  1  0  0  0  0
 11 12  1  0  0  0  0
 12 13  2  0  0  0  0
 12  1  1  0  0  0  0
 13  2  1  0  0  0  0
 14 13  1  0  0  0  0
 14 19  1  0  0  0  0
 15 14  2  0  0  0  0
 16 15  1  0  0  0  0
 17 11  2  0  0  0  0
 17 15  1  0  0  0  0
 18 17  1  0  0  0  0
 19  6  2  0  0  0  0
 20 24  1  0  0  0  0
 20 19  1  0  0  0  0
 21 20  2  0  0  0  0
 22 21  1  0  0  0  0
 23 21  1  0  0  0  0
 24 26  1  0  0  0  0
 25 24  1  0  0  0  0
 27 24  1  0  0  0  0
 27 30  1  0  0  0  0
 27 29  1  0  0  0  0
 28 27  1  0  0  0  0
M  CHG  1   3  -1
M  END
