1
q = -1.0, confidence = 0.012

 22 23  0  0  0  0  0  0  0  0999 V2000
   -0.4978    0.2612   -0.2875 O   0  5  0  0  0  0  0  0  0  0  0  0
   -1.2169    1.3171   -0.2017 C   0  0  0  0  0  0  0  0  0  0  0  0
   -0.0128    3.5308   -0.4890 O   0  0  0  0  0  0  0  0  0  0  0  0
   -0.9827    2.8031   -0.2561 C   0  0  0  0  0  0  0  0  0  0  0  0
   -3.2725    3.9226    0.0731 O   0  0  0  0  0  0  0  0  0  0  0  0
   -2.5006    2.9862   -0.0495 C   0  0  0  0  0  0  0  0  0  0  0  0
   -2.6250    1.5057   -0.0945 C   0  0  0  0  0  0  0  0  0  0  0  0
   -5.0599    1.1594    0.1144 C   0  0  0  0  0  0  0  0  0  0  0  0
   -5.1617    2.2477    0.2431 H   0  0  0  0  0  0  0  0  0  0  0  0
   -6.1847    0.3294    0.1398 C   0  0  0  0  0  0  0  0  0  0  0  0
   -7.1771    0.7734    0.2941 H   0  0  0  0  0  0  0  0  0  0  0  0
   -6.0326   -1.0649   -0.0348 C   0  0  0  0  0  0  0  0  0  0  0  0
   -4.7417   -1.6100   -0.2395 C   0  0  0  0  0  0  0  0  0  0  0  0
   -4.6548   -2.6970   -0.3819 H   0  0  0  0  0  0  0  0  0  0  0  0
   -3.6266   -0.7792   -0.2619 C   0  0  0  0  0  0  0  0  0  0  0  0
   -2.6254   -1.1995   -0.4382 H   0  0  0  0  0  0  0  0  0  0  0  0
   -3.7610    0.6255   -0.0791 C   0  0  0  0  0  0  0  0  0  0  0  0
   -7.0553   -1.9564   -0.0270 O   0  0  0  0  0  0  0  0  0  0  0  0
   -8.3745   -1.4756    0.1650 C   0  0  0  0  0  0  0  0  0  0  0  0
   -9.0362   -2.3606    0.1348 H   0  0  0  0  0  0  0  0  0  0  0  0
   -8.6775   -0.7685   -0.6389 H   0  0  0  0  0  0  0  0  0  0  0  0
   -8.4906   -0.9692    1.1489 H   0  0  0  0  0  0  0  0  0  0  0  0
  1  2  1  0  0  0  0
  2  7  2  0  0  0  0
  3  4  2  0  0  0  0
  4  2  1  0  0  0  0
  4  6  1  0  0  0  0
  6  5  2  0  0  0  0
  7 17  1  0  0  0  0
  7  6  1  0  0  0  0
  8 10  1  0  0  0  0
  8  9  1  0  0  0  0
 10 11  1  0  0  0  0
 12 18  1  0  0  0  0
 12 10  2  0  0  0  0
 13 12  1  0  0  0  0
 14 13  1  0  0  0  0
 15 13  2  0  0  0  0
 15 17  1  0  0  0  0
 16 15  1  0  0  0  0
 17  8  2  0  0  0  0
 18 19  1  0  0  0  0
 19 22  1  0  0  0  0
 20 19  1  0  0  0  0
 21 19  1  0  0  0  0
M  CHG  1   1  -1
M  END
