1
q = -1.0, confidence = 0.014

  9  8  0  0  0  0  0  0  0  0999 V2000
    1.3569   -1.1589    0.9654 O   0  5  0  0  0  0  0  0  0  0  0  0
    2.3763   -1.7328    0.3465 C   0  0  0  0  0  0  0  0  0  0  0  0
    3.2703   -2.3373    0.9052 O   0  0  0  0  0  0  0  0  0  0  0  0
    2.3801   -1.5562   -1.1881 C   0  0  0  0  0  0  0  0  0  0  0  0
    3.1307   -0.7798   -1.4348 H   0  0  0  0  0  0  0  0  0  0  0  0
    2.7121   -2.5000   -1.6626 H   0  0  0  0  0  0  0  0  0  0  0  0
    1.0541   -1.1130   -1.6927 N   0  0  0  0  0  0  0  0  0  0  0  0
    0.4784   -1.9294   -1.9403 H   0  0  0  0  0  0  0  0  0  0  0  0
    1.1422   -0.5533   -2.5514 H   0  0  0  0  0  0  0  0  0  0  0  0
  2  3  2  0  0  0  0
  2  1  1  0  0  0  0
  4  2  1  0  0  0  0
  5  4  1  0  0  0  0
  6  4  1  0  0  0  0
  7  4  1  0  0  0  0
  8  7  1  0  0  0  0
  9  7  1  0  0  0  0
M  CHG  1   1  -1
M  END
