1
q = -2.0, confidence = 0.964

 35 37  0  0  0  0  0  0  0  0999 V2000
   -0.6914   -0.0670    1.0098 O   0  0  0  0  0  0  0  0  0  0  0  0
    0.4057    0.1460    0.0151 B   0  0  0  0  0  0  0  0  0  0  0  0
    1.0074    2.0906    2.0071 F   0  0  0  0  0  0  0  0  0  0  0  0
    0.8323    4.7743    1.8171 F   0  0  0  0  0  0  0  0  0  0  0  0
    0.0914    5.9447   -0.5517 F   0  0  0  0  0  0  0  0  0  0  0  0
   -0.4760    4.3699   -2.7286 F   0  0  0  0  0  0  0  0  0  0  0  0
   -0.3379    1.7088   -2.5604 F   0  0  0  0  0  0  0  0  0  0  0  0
    1.9857    0.0529   -2.4104 F   0  0  0  0  0  0  0  0  0  0  0  0
    1.6098   -1.5287   -4.5709 F   0  0  0  0  0  0  0  0  0  0  0  0
   -0.4965   -3.2792   -4.6522 F   0  0  0  0  0  0  0  0  0  0  0  0
   -2.2329   -3.4181   -2.5131 F   0  0  0  0  0  0  0  0  0  0  0  0
   -1.8816   -1.9356   -0.3565 F   0  0  0  0  0  0  0  0  0  0  0  0
    3.1740    1.4667    0.0659 F   0  0  0  0  0  0  0  0  0  0  0  0
    5.3932    0.3652    1.0754 F   0  0  0  0  0  0  0  0  0  0  0  0
    5.3381   -2.1531    2.1574 F   0  0  0  0  0  0  0  0  0  0  0  0
    2.9782   -3.5647    2.2026 F   0  0  0  0  0  0  0  0  0  0  0  0
    0.7382   -2.4910    1.1765 F   0  0  0  0  0  0  0  0  0  0  0  0
    0.3932    1.7624   -0.2731 C   0  0  0  0  0  0  0  0  0  0  0  0
    0.6546    2.6138    0.8162 C   0  0  0  0  0  0  0  0  0  0  0  0
    0.5626    4.0124    0.7502 C   0  0  0  0  0  0  0  0  0  0  0  0
    0.1846    4.6151   -0.4623 C   0  0  0  0  0  0  0  0  0  0  0  0
   -0.0974    3.8084   -1.5744 C   0  0  0  0  0  0  0  0  0  0  0  0
    0.0098    2.4107   -1.4542 C   0  0  0  0  0  0  0  0  0  0  0  0
    0.0755   -0.8078   -1.2971 C   0  0  0  0  0  0  0  0  0  0  0  0
    0.9427   -0.7914   -2.4046 C   0  0  0  0  0  0  0  0  0  0  0  0
    0.7678   -1.6006   -3.5380 C   0  0  0  0  0  0  0  0  0  0  0  0
   -0.3117   -2.5021   -3.5835 C   0  0  0  0  0  0  0  0  0  0  0  0
   -1.1964   -2.5707   -2.4975 C   0  0  0  0  0  0  0  0  0  0  0  0
   -0.9552   -1.7376   -1.3955 C   0  0  0  0  0  0  0  0  0  0  0  0
    1.8236   -0.4318    0.6235 C   0  0  0  0  0  0  0  0  0  0  0  0
    3.0590    0.2366    0.5981 C   0  0  0  0  0  0  0  0  0  0  0  0
    4.2441   -0.3195    1.1133 C   0  0  0  0  0  0  0  0  0  0  0  0
    4.2212   -1.6099    1.6642 C   0  0  0  0  0  0  0  0  0  0  0  0
    3.0143   -2.3263    1.6918 C   0  0  0  0  0  0  0  0  0  0  0  0
    1.8610   -1.7284    1.1611 C   0  0  0  0  0  0  0  0  0  0  0  0
  2 30  1  0  0  0  0
  2  1  1  0  0  0  0
  5 21  1  0  0  0  0
  6 22  1  0  0  0  0
  7 23  1  0  0  0  0
  8 25  1  0  0  0  0
  9 26  1  0  0  0  0
 10 27  1  0  0  0  0
 11 28  1  0  0  0  0
 13 31  1  0  0  0  0
 14 32  1  0  0  0  0
 18  2  1  0  0  0  0
 18 19  1  0  0  0  0
 19  3  1  0  0  0  0
 20 19  2  0  0  0  0
 20  4  1  0  0  0  0
 21 20  1  0  0  0  0
 22 23  1  0  0  0  0
 22 21  2  0  0  0  0
 23 18  2  0  0  0  0
 24  2  1  0  0  0  0
 25 24  2  0  0  0  0
 26 25  1  0  0  0  0
 27 26  2  0  0  0  0
 27 28  1  0  0  0  0
 28 29  2  0  0  0  0
 29 24  1  0  0  0  0
 29 12  1  0  0  0  0
 30 35  1  0  0  0  0
 31 30  2  0  0  0  0
 31 32  1  0  0  0  0
 32 33  2  0  0  0  0
 33 34  1  0  0  0  0
 33 15  1  0  0  0  0
 34 16  1  0  0  0  0
 35 17  1  0  0  0  0
 35 34  2  0  0  0  0
M  END
