1
q = -1.0, confidence = 0.012

 16 15  0  0  0  0  0  0  0  0999 V2000
   -1.7377    1.4566    0.5466 O   0  0  0  0  0  1  0  0  0  0  0  0
   -1.1134    2.5522   -0.0720 N   0  0  0  0  0  0  0  0  0  0  0  0
   -1.7894    2.9186   -1.3337 C   0  0  0  0  0  0  0  0  0  0  0  0
   -1.6792    2.0542   -2.0184 H   0  0  0  0  0  0  0  0  0  0  0  0
   -1.2044    3.7524   -1.7744 H   0  0  0  0  0  0  0  0  0  0  0  0
   -3.2653    3.2759   -1.1781 C   0  0  0  0  0  0  0  0  0  0  0  0
   -3.8006    2.4511   -0.6678 H   0  0  0  0  0  0  0  0  0  0  0  0
   -3.7250    3.4280   -2.1743 H   0  0  0  0  0  0  0  0  0  0  0  0
   -3.4178    4.2041   -0.5927 H   0  0  0  0  0  0  0  0  0  0  0  0
   -0.9094    3.6800    0.8601 C   0  0  0  0  0  0  0  0  0  0  0  0
   -1.8937    4.1383    1.1072 H   0  0  0  0  0  0  0  0  0  0  0  0
   -0.3216    4.4345    0.2964 H   0  0  0  0  0  0  0  0  0  0  0  0
   -0.1868    3.2765    2.1363 C   0  0  0  0  0  0  0  0  0  0  0  0
   -0.7788    2.5415    2.7131 H   0  0  0  0  0  0  0  0  0  0  0  0
   -0.0256    4.1698    2.7708 H   0  0  0  0  0  0  0  0  0  0  0  0
    0.8033    2.8253    1.9240 H   0  0  0  0  0  0  0  0  0  0  0  0
  2  1  1  0  0  0  0
  2 10  1  0  0  0  0
  3  6  1  0  0  0  0
  3  2  1  0  0  0  0
  4  3  1  0  0  0  0
  5  3  1  0  0  0  0
  6  7  1  0  0  0  0
  6  9  1  0  0  0  0
  8  6  1  0  0  0  0
 10 11  1  0  0  0  0
 10 13  1  0  0  0  0
 12 10  1  0  0  0  0
 13 14  1  0  0  0  0
 13 15  1  0  0  0  0
 16 13  1  0  0  0  0
M  END
