1
q = -1.0, confidence = 0.024

 32 33  0  0  1  0  0  0  0  0999 V2000
    0.6522   -0.8555   -1.0711 O   0  0  0  0  0  1  0  0  0  0  0  0
   -0.3009    0.1614    1.1297 O   0  0  0  0  0  0  0  0  0  0  0  0
    1.3452   -1.1755    0.1129 C   0  0  1  0  0  0  0  0  0  0  0  0
    0.8681   -2.0956    0.5296 H   0  0  0  0  0  0  0  0  0  0  0  0
    2.8153   -1.4261   -0.1386 C   0  0  0  0  0  0  0  0  0  0  0  0
    3.4779   -0.7946   -1.2057 C   0  0  0  0  0  0  0  0  0  0  0  0
    2.8967   -0.1673   -1.8966 H   0  0  0  0  0  0  0  0  0  0  0  0
    4.8581   -0.9688   -1.3783 C   0  0  0  0  0  0  0  0  0  0  0  0
    5.3700   -0.4717   -2.2163 H   0  0  0  0  0  0  0  0  0  0  0  0
    5.5874   -1.7701   -0.4849 C   0  0  0  0  0  0  0  0  0  0  0  0
    6.6713   -1.9040   -0.6210 H   0  0  0  0  0  0  0  0  0  0  0  0
    4.9279   -2.4079    0.5778 C   0  0  0  0  0  0  0  0  0  0  0  0
    5.4914   -3.0480    1.2738 H   0  0  0  0  0  0  0  0  0  0  0  0
    3.5453   -2.2395    0.7470 C   0  0  0  0  0  0  0  0  0  0  0  0
    3.0254   -2.7501    1.5740 H   0  0  0  0  0  0  0  0  0  0  0  0
    1.1175   -0.0472    1.1618 C   0  0  1  0  0  0  0  0  0  0  0  0
    1.4014   -0.4585    2.1587 H   0  0  0  0  0  0  0  0  0  0  0  0
    1.9387    1.1985    0.8995 C   0  0  0  0  0  0  0  0  0  0  0  0
    3.1224    1.4027    1.6339 C   0  0  0  0  0  0  0  0  0  0  0  0
    3.4010    0.6858    2.4226 H   0  0  0  0  0  0  0  0  0  0  0  0
    3.9577    2.4936    1.3552 C   0  0  0  0  0  0  0  0  0  0  0  0
    4.8845    2.6353    1.9316 H   0  0  0  0  0  0  0  0  0  0  0  0
    3.6084    3.4022    0.3440 C   0  0  0  0  0  0  0  0  0  0  0  0
    4.2598    4.2620    0.1249 H   0  0  0  0  0  0  0  0  0  0  0  0
    2.4229    3.2116   -0.3835 C   0  0  0  0  0  0  0  0  0  0  0  0
    2.1392    3.9228   -1.1742 H   0  0  0  0  0  0  0  0  0  0  0  0
    1.5915    2.1138   -0.1146 C   0  0  0  0  0  0  0  0  0  0  0  0
    0.6674    1.9733   -0.6943 H   0  0  0  0  0  0  0  0  0  0  0  0
   -0.7812    1.1140    2.0662 C   0  0  0  0  0  0  0  0  0  0  0  0
   -0.4525    0.8542    3.0972 H   0  0  0  0  0  0  0  0  0  0  0  0
   -1.8864    1.0838    2.0317 H   0  0  0  0  0  0  0  0  0  0  0  0
   -0.4339    2.1419    1.8267 H   0  0  0  0  0  0  0  0  0  0  0  0
  1  3  1  0  0  0  0
  2 16  1  0  0  0  0
  2 29  1  0  0  0  0
  3  4  1  1  0  0  0
  3 16  1  0  0  0  0
  5  3  1  0  0  0  0
  5 14  1  0  0  0  0
  6  5  2  0  0  0  0
  7  6  1  0  0  0  0
  8  6  1  0  0  0  0
  8 10  2  0  0  0  0
  9  8  1  0  0  0  0
 10 12  1  0  0  0  0
 11 10  1  0  0  0  0
 12 14  2  0  0  0  0
 12 13  1  0  0  0  0
 14 15  1  0  0  0  0
 16 17  1  1  0  0  0
 18 16  1  0  0  0  0
 18 19  1  0  0  0  0
 19 20  1  0  0  0  0
 21 19  2  0  0  0  0
 21 22  1  0  0  0  0
 23 21  1  0  0  0  0
 24 23  1  0  0  0  0
 25 27  1  0  0  0  0
 25 23  2  0  0  0  0
 26 25  1  0  0  0  0
 27 18  2  0  0  0  0
 28 27  1  0  0  0  0
 29 30  1  0  0  0  0
 31 29  1  0  0  0  0
 32 29  1  0  0  0  0
M  END
