2
q = -1.0, confidence = 0.122

 48 51  0  0  1  0  0  0  0  0999 V2000
    0.6651    0.0437   -0.0070 B   0  0  0  0  0  0  0  0  0  0  0  0
   -1.2198    0.0402   -1.8388 O   0  0  0  0  0  1  0  0  0  0  0  0
    0.5764   -2.9075   -0.8733 O   0  0  0  0  0  0  0  0  0  0  0  0
    2.3171   -0.7427   -2.2179 F   0  0  0  0  0  0  0  0  0  0  0  0
    4.5405   -2.2622   -2.1779 F   0  0  0  0  0  0  0  0  0  0  0  0
    5.4642   -3.2870    0.2004 F   0  0  0  0  0  0  0  0  0  0  0  0
    4.1054   -2.7561    2.5250 F   0  0  0  0  0  0  0  0  0  0  0  0
    1.8982   -1.2725    2.5101 F   0  0  0  0  0  0  0  0  0  0  0  0
    3.3795    1.3502   -0.8855 F   0  0  0  0  0  0  0  0  0  0  0  0
    3.6550    3.7610   -1.9037 F   0  0  0  0  0  0  0  0  0  0  0  0
    1.5267    5.4872   -2.0852 F   0  0  0  0  0  0  0  0  0  0  0  0
   -0.9482    4.6645   -1.1563 F   0  0  0  0  0  0  0  0  0  0  0  0
   -1.2415    2.2630   -0.0794 F   0  0  0  0  0  0  0  0  0  0  0  0
    1.4623    1.7198    2.2157 F   0  0  0  0  0  0  0  0  0  0  0  0
    0.2209    2.0935    4.5589 F   0  0  0  0  0  0  0  0  0  0  0  0
   -2.0778    0.7234    5.1577 F   0  0  0  0  0  0  0  0  0  0  0  0
   -3.1165   -1.0438    3.3038 F   0  0  0  0  0  0  0  0  0  0  0  0
   -1.9477   -1.4603    0.9919 F   0  0  0  0  0  0  0  0  0  0  0  0
   -0.3579   -0.6991   -1.1262 C   0  0  1  0  0  3  0  0  0  0  0  0
   -0.1679   -2.1059   -1.4173 C   0  0  0  0  0  0  0  0  0  0  0  0
   -2.2090   -1.9931   -3.2162 C   0  0  0  0  0  0  0  0  0  0  0  0
   -1.9156   -1.4086   -4.0969 H   0  0  0  0  0  0  0  0  0  0  0  0
   -3.5256   -2.1955   -2.7702 C   0  0  0  0  0  0  0  0  0  0  0  0
   -4.4270   -1.8322   -3.2731 H   0  0  0  0  0  0  0  0  0  0  0  0
   -3.4878   -3.0550   -1.6012 C   0  0  0  0  0  0  0  0  0  0  0  0
   -4.3545   -3.3774   -1.0107 H   0  0  0  0  0  0  0  0  0  0  0  0
   -2.1650   -3.4286   -1.3818 C   0  0  0  0  0  0  0  0  0  0  0  0
   -1.7798   -4.0363   -0.5536 H   0  0  0  0  0  0  0  0  0  0  0  0
   -1.2767   -2.8122   -2.4101 C   0  0  2  0  0  0  0  0  0  0  0  0
   -0.6149   -3.4759   -3.0042 H   0  0  0  0  0  0  0  0  0  0  0  0
    2.0138   -0.8781    0.1397 C   0  0  0  0  0  0  0  0  0  0  0  0
    2.7465   -1.1986   -1.0205 C   0  0  0  0  0  0  0  0  0  0  0  0
    3.8959   -1.9933   -1.0341 C   0  0  0  0  0  0  0  0  0  0  0  0
    4.3664   -2.5239    0.1785 C   0  0  0  0  0  0  0  0  0  0  0  0
    3.6711   -2.2483    1.3633 C   0  0  0  0  0  0  0  0  0  0  0  0
    2.5150   -1.4474    1.3209 C   0  0  0  0  0  0  0  0  0  0  0  0
    1.0031    1.5815   -0.5412 C   0  0  0  0  0  0  0  0  0  0  0  0
    2.2523    2.0769   -0.9706 C   0  0  0  0  0  0  0  0  0  0  0  0
    2.4409    3.3694   -1.4984 C   0  0  0  0  0  0  0  0  0  0  0  0
    1.3619    4.2598   -1.5826 C   0  0  0  0  0  0  0  0  0  0  0  0
    0.1098    3.8385   -1.1164 C   0  0  0  0  0  0  0  0  0  0  0  0
   -0.0165    2.5450   -0.5920 C   0  0  0  0  0  0  0  0  0  0  0  0
   -0.1530    0.1516    1.4385 C   0  0  0  0  0  0  0  0  0  0  0  0
    0.3265    1.0393    2.4263 C   0  0  0  0  0  0  0  0  0  0  0  0
   -0.2932    1.2425    3.6688 C   0  0  0  0  0  0  0  0  0  0  0  0
   -1.4691    0.5381    3.9850 C   0  0  0  0  0  0  0  0  0  0  0  0
   -1.9835   -0.3680    3.0502 C   0  0  0  0  0  0  0  0  0  0  0  0
   -1.3059   -0.5278    1.8318 C   0  0  0  0  0  0  0  0  0  0  0  0
  1 31  1  0  0  0  0
  1 43  1  0  0  0  0
  4 32  1  0  0  0  0
  5 33  1  0  0  0  0
 10 39  1  0  0  0  0
 11 40  1  0  0  0  0
 12 41  1  0  0  0  0
 14 44  1  0  0  0  0
 18 48  1  0  0  0  0
 19  2  1  6  0  0  0
 19  1  1  0  0  0  0
 20 19  1  0  0  0  0
 20  3  2  0  0  0  0
 21 23  2  0  0  0  0
 21 29  1  0  0  0  0
 22 21  1  0  0  0  0
 23 25  1  0  0  0  0
 24 23  1  0  0  0  0
 25 27  2  0  0  0  0
 25 26  1  0  0  0  0
 27 28  1  0  0  0  0
 29 30  1  6  0  0  0
 29 20  1  0  0  0  0
 29 27  1  0  0  0  0
 31 36  1  0  0  0  0
 32 31  2  0  0  0  0
 33 32  1  0  0  0  0
 33 34  2  0  0  0  0
 34  6  1  0  0  0  0
 34 35  1  0  0  0  0
 35  7  1  0  0  0  0
 36 35  2  0  0  0  0
 36  8  1  0  0  0  0
 37  1  1  0  0  0  0
 38  9  1  0  0  0  0
 38 37  2  0  0  0  0
 39 38  1  0  0  0  0
 40 39  2  0  0  0  0
 40 41  1  0  0  0  0
 41 42  2  0  0  0  0
 42 37  1  0  0  0  0
 42 13  1  0  0  0  0
 43 48  2  0  0  0  0
 43 44  1  0  0  0  0
 44 45  2  0  0  0  0
 45 46  1  0  0  0  0
 45 15  1  0  0  0  0
 46 16  1  0  0  0  0
 47 17  1  0  0  0  0
 47 46  2  0  0  0  0
 48 47  1  0  0  0  0
M  END
