1
q = -1.0, confidence = 0.022

 20 20  0  0  0  0  0  0  0  0999 V2000
   -1.8310    1.2415   -0.8894 O   0  5  0  0  0  0  0  0  0  0  0  0
   -3.0171    0.1555    0.7624 O   0  0  0  0  0  0  0  0  0  0  0  0
   -3.3011   -1.9616   -1.7513 O   0  0  0  0  0  0  0  0  0  0  0  0
   -6.5556   -1.6555    1.4871 O   0  0  0  0  0  0  0  0  0  0  0  0
   -4.0544    1.2745   -0.9371 N   0  0  0  0  0  0  0  0  0  0  0  0
   -3.8956    1.8191   -1.7848 H   0  0  0  0  0  0  0  0  0  0  0  0
   -5.1592   -1.6106   -0.3800 N   0  0  0  0  0  0  0  0  0  0  0  0
   -2.9321    0.8555   -0.2753 C   0  0  0  0  0  0  0  0  0  0  0  0
   -5.3932    0.8660   -0.5738 C   0  0  0  0  0  0  0  0  0  0  0  0
   -6.1042    1.6170   -0.9738 H   0  0  0  0  0  0  0  0  0  0  0  0
   -5.4864    0.8813    0.5309 H   0  0  0  0  0  0  0  0  0  0  0  0
   -5.8130   -0.5246   -1.0877 C   0  0  0  0  0  0  0  0  0  0  0  0
   -6.9055   -0.6499   -0.9463 H   0  0  0  0  0  0  0  0  0  0  0  0
   -5.5719   -0.6335   -2.1636 H   0  0  0  0  0  0  0  0  0  0  0  0
   -3.9354   -2.1849   -0.7287 C   0  0  0  0  0  0  0  0  0  0  0  0
   -3.5728   -3.1137    0.3989 C   0  0  0  0  0  0  0  0  0  0  0  0
   -2.6717   -3.7395    0.3698 H   0  0  0  0  0  0  0  0  0  0  0  0
   -4.5210   -3.0270    1.3524 C   0  0  0  0  0  0  0  0  0  0  0  0
   -4.5980   -3.5496    2.3138 H   0  0  0  0  0  0  0  0  0  0  0  0
   -5.5584   -2.0358    0.8999 C   0  0  0  0  0  0  0  0  0  0  0  0
  1  8  1  0  0  0  0
  3 15  2  0  0  0  0
  5  9  1  0  0  0  0
  5  8  1  0  0  0  0
  6  5  1  0  0  0  0
  7 20  1  0  0  0  0
  8  2  2  0  0  0  0
  9 11  1  0  0  0  0
 10  9  1  0  0  0  0
 12 13  1  0  0  0  0
 12  9  1  0  0  0  0
 12  7  1  0  0  0  0
 14 12  1  0  0  0  0
 15  7  1  0  0  0  0
 15 16  1  0  0  0  0
 16 18  2  0  0  0  0
 17 16  1  0  0  0  0
 18 19  1  0  0  0  0
 20 18  1  0  0  0  0
 20  4  2  0  0  0  0
M  CHG  1   1  -1
M  END
