1
q = -1.0, confidence = 0.074

 59 61  0  0  0  0  0  0  0  0999 V2000
   -0.5319    0.9626   -0.5066 O   0  5  0  0  0  0  0  0  0  0  0  0
    0.8969   -1.4220   -0.3741 C   0  0  0  0  0  0  0  0  0  0  0  0
    0.7844    1.1085   -0.2865 C   0  0  0  0  0  0  0  0  0  0  0  0
    1.3644    2.3946   -0.0989 C   0  0  0  0  0  0  0  0  0  0  0  0
    2.7572    2.4467    0.1160 C   0  0  0  0  0  0  0  0  0  0  0  0
    3.5787    1.3066    0.1624 C   0  0  0  0  0  0  0  0  0  0  0  0
    2.9600    0.0536   -0.0101 C   0  0  0  0  0  0  0  0  0  0  0  0
    1.5841   -0.0677   -0.2307 C   0  0  0  0  0  0  0  0  0  0  0  0
    1.8776   -2.5225   -0.7610 C   0  0  0  0  0  0  0  0  0  0  0  0
    2.4799   -3.3556    0.2018 C   0  0  0  0  0  0  0  0  0  0  0  0
    3.4324   -4.3158   -0.1752 C   0  0  0  0  0  0  0  0  0  0  0  0
    3.7949   -4.4605   -1.5231 C   0  0  0  0  0  0  0  0  0  0  0  0
    3.1963   -3.6386   -2.4924 C   0  0  0  0  0  0  0  0  0  0  0  0
    2.2472   -2.6792   -2.1119 C   0  0  0  0  0  0  0  0  0  0  0  0
    0.0602   -1.7971    0.8509 C   0  0  0  0  0  0  0  0  0  0  0  0
    0.1901   -1.1451    2.0893 C   0  0  0  0  0  0  0  0  0  0  0  0
   -0.6054   -1.5190    3.1849 C   0  0  0  0  0  0  0  0  0  0  0  0
   -1.5415   -2.5548    3.0601 C   0  0  0  0  0  0  0  0  0  0  0  0
   -1.6741   -3.2208    1.8283 C   0  0  0  0  0  0  0  0  0  0  0  0
   -0.8794   -2.8439    0.7380 C   0  0  0  0  0  0  0  0  0  0  0  0
    0.5028    3.6730   -0.1037 C   0  0  0  0  0  0  0  0  0  0  0  0
   -0.2464    3.8159   -1.4500 C   0  0  0  0  0  0  0  0  0  0  0  0
   -0.5011    3.6177    1.0736 C   0  0  0  0  0  0  0  0  0  0  0  0
    1.3595    4.9404    0.0807 C   0  0  0  0  0  0  0  0  0  0  0  0
    5.0996    1.3764    0.3842 C   0  0  0  0  0  0  0  0  0  0  0  0
    5.5951    2.8202    0.5733 C   0  0  0  0  0  0  0  0  0  0  0  0
    5.1276    3.3041    1.4546 H   0  0  0  0  0  0  0  0  0  0  0  0
    5.3841    3.4480   -0.3159 H   0  0  0  0  0  0  0  0  0  0  0  0
    6.6926    2.8245    0.7321 H   0  0  0  0  0  0  0  0  0  0  0  0
    5.4691    0.5648    1.6469 C   0  0  0  0  0  0  0  0  0  0  0  0
    4.9659    0.9798    2.5438 H   0  0  0  0  0  0  0  0  0  0  0  0
    6.5651    0.5917    1.8217 H   0  0  0  0  0  0  0  0  0  0  0  0
    5.1689   -0.4977    1.5531 H   0  0  0  0  0  0  0  0  0  0  0  0
    5.8174    0.7695   -0.8434 C   0  0  0  0  0  0  0  0  0  0  0  0
    5.5731    1.3387   -1.7631 H   0  0  0  0  0  0  0  0  0  0  0  0
    5.5194   -0.2844   -1.0119 H   0  0  0  0  0  0  0  0  0  0  0  0
    6.9185    0.7933   -0.7037 H   0  0  0  0  0  0  0  0  0  0  0  0
    0.1701   -1.3274   -1.2100 H   0  0  0  0  0  0  0  0  0  0  0  0
    3.2184    3.4303    0.2545 H   0  0  0  0  0  0  0  0  0  0  0  0
    3.5617   -0.8662    0.0214 H   0  0  0  0  0  0  0  0  0  0  0  0
    2.1947   -3.2482    1.2595 H   0  0  0  0  0  0  0  0  0  0  0  0
    3.8936   -4.9571    0.5918 H   0  0  0  0  0  0  0  0  0  0  0  0
    4.5397   -5.2149   -1.8195 H   0  0  0  0  0  0  0  0  0  0  0  0
    3.4699   -3.7471   -3.5533 H   0  0  0  0  0  0  0  0  0  0  0  0
    1.7854   -2.0284   -2.8714 H   0  0  0  0  0  0  0  0  0  0  0  0
    0.9122   -0.3213    2.1896 H   0  0  0  0  0  0  0  0  0  0  0  0
   -0.4939   -0.9885    4.1430 H   0  0  0  0  0  0  0  0  0  0  0  0
   -2.1622   -2.8502    3.9203 H   0  0  0  0  0  0  0  0  0  0  0  0
   -2.3965   -4.0456    1.7209 H   0  0  0  0  0  0  0  0  0  0  0  0
   -0.9771   -3.3688   -0.2246 H   0  0  0  0  0  0  0  0  0  0  0  0
   -0.9699    2.9995   -1.6197 H   0  0  0  0  0  0  0  0  0  0  0  0
   -0.8105    4.7720   -1.4657 H   0  0  0  0  0  0  0  0  0  0  0  0
    0.4734    3.8318   -2.2938 H   0  0  0  0  0  0  0  0  0  0  0  0
   -1.1394    2.7158    1.0443 H   0  0  0  0  0  0  0  0  0  0  0  0
    0.0396    3.6138    2.0420 H   0  0  0  0  0  0  0  0  0  0  0  0
   -1.1635    4.5084    1.0544 H   0  0  0  0  0  0  0  0  0  0  0  0
    2.0956    5.0671   -0.7389 H   0  0  0  0  0  0  0  0  0  0  0  0
    1.9093    4.9390    1.0435 H   0  0  0  0  0  0  0  0  0  0  0  0
    0.6998    5.8314    0.0771 H   0  0  0  0  0  0  0  0  0  0  0  0
  1  3  1  0  0  0  0
  2  8  1  0  0  0  0
  2 15  1  0  0  0  0
  3  8  2  0  0  0  0
  3  4  1  0  0  0  0
  4  5  2  0  0  0  0
  5  6  1  0  0  0  0
  5 39  1  0  0  0  0
  6 25  1  0  0  0  0
  7 40  1  0  0  0  0
  7  6  2  0  0  0  0
  8  7  1  0  0  0  0
  9  2  1  0  0  0  0
  9 10  1  0  0  0  0
 10 41  1  0  0  0  0
 11 10  2  0  0  0  0
 11 42  1  0  0  0  0
 12 11  1  0  0  0  0
 13 14  1  0  0  0  0
 13 12  2  0  0  0  0
 14  9  2  0  0  0  0
 15 16  1  0  0  0  0
 16 46  1  0  0  0  0
 16 17  2  0  0  0  0
 17 47  1  0  0  0  0
 18 17  1  0  0  0  0
 18 48  1  0  0  0  0
 19 18  2  0  0  0  0
 20 15  2  0  0  0  0
 20 19  1  0  0  0  0
 21  4  1  0  0  0  0
 21 24  1  0  0  0  0
 21 23  1  0  0  0  0
 22 21  1  0  0  0  0
 23 55  1  0  0  0  0
 24 58  1  0  0  0  0
 25 26  1  0  0  0  0
 25 30  1  0  0  0  0
 26 29  1  0  0  0  0
 26 27  1  0  0  0  0
 28 26  1  0  0  0  0
 30 32  1  0  0  0  0
 30 31  1  0  0  0  0
 33 30  1  0  0  0  0
 34 37  1  0  0  0  0
 34 25  1  0  0  0  0
 35 34  1  0  0  0  0
 36 34  1  0  0  0  0
 38  2  1  0  0  0  0
 43 12  1  0  0  0  0
 44 13  1  0  0  0  0
 45 14  1  0  0  0  0
 49 19  1  0  0  0  0
 50 20  1  0  0  0  0
 51 22  1  0  0  0  0
 52 22  1  0  0  0  0
 53 22  1  0  0  0  0
 54 23  1  0  0  0  0
 56 23  1  0  0  0  0
 57 24  1  0  0  0  0
 59 24  1  0  0  0  0
M  CHG  1   1  -1
M  END
