1
q = -1.0, confidence = 0.0

 20 20  0  0  0  0  0  0  0  0999 V2000
   -0.9982    0.3442   -0.8961 O   0  5  0  0  0  0  0  0  0  0  0  0
   -3.2722   -0.9814   -2.0268 O   0  0  0  0  0  0  0  0  0  0  0  0
   -5.6223   -0.6450   -1.0149 O   0  0  0  0  0  0  0  0  0  0  0  0
   -2.2265    0.5256   -0.3696 C   0  0  0  0  0  0  0  0  0  0  0  0
   -3.3329   -0.1229   -0.9784 C   0  0  0  0  0  0  0  0  0  0  0  0
   -4.6247    0.0411   -0.3939 C   0  0  0  0  0  0  0  0  0  0  0  0
   -4.7929    0.8416    0.7486 C   0  0  0  0  0  0  0  0  0  0  0  0
   -5.7880    0.9697    1.1930 H   0  0  0  0  0  0  0  0  0  0  0  0
   -3.6804    1.4776    1.3301 C   0  0  0  0  0  0  0  0  0  0  0  0
   -3.8173    2.0949    2.2300 H   0  0  0  0  0  0  0  0  0  0  0  0
   -2.4067    1.3261    0.7820 C   0  0  0  0  0  0  0  0  0  0  0  0
   -1.5235    1.7941    1.2343 H   0  0  0  0  0  0  0  0  0  0  0  0
   -2.2616   -0.8684   -3.0276 C   0  0  0  0  0  0  0  0  0  0  0  0
   -2.0462    0.1911   -3.2766 H   0  0  0  0  0  0  0  0  0  0  0  0
   -2.6684   -1.3781   -3.9224 H   0  0  0  0  0  0  0  0  0  0  0  0
   -1.3181   -1.3689   -2.7246 H   0  0  0  0  0  0  0  0  0  0  0  0
   -6.9221   -0.5617   -0.4694 C   0  0  0  0  0  0  0  0  0  0  0  0
   -6.9606   -0.9445    0.5759 H   0  0  0  0  0  0  0  0  0  0  0  0
   -7.5700   -1.1919   -1.1068 H   0  0  0  0  0  0  0  0  0  0  0  0
   -7.3132    0.4814   -0.4778 H   0  0  0  0  0  0  0  0  0  0  0  0
  1  4  1  0  0  0  0
  2  5  1  0  0  0  0
  3 17  1  0  0  0  0
  3  6  1  0  0  0  0
  4 11  1  0  0  0  0
  5  6  1  0  0  0  0
  5  4  2  0  0  0  0
  6  7  2  0  0  0  0
  7  8  1  0  0  0  0
  7  9  1  0  0  0  0
  9 10  1  0  0  0  0
 11 12  1  0  0  0  0
 11  9  2  0  0  0  0
 13 16  1  0  0  0  0
 13  2  1  0  0  0  0
 14 13  1  0  0  0  0
 15 13  1  0  0  0  0
 17 18  1  0  0  0  0
 19 17  1  0  0  0  0
 20 17  1  0  0  0  0
M  CHG  1   1  -1
M  END
