2
q = -1.0, confidence = 0.0

 15 15  0  0  0  0  0  0  0  0999 V2000
    2.3626    6.9137    0.1022 S   0  0  0  0  0  0  0  0  0  0  0  0
   -1.4234    1.2715   -0.0889 O   0  5  0  0  0  0  0  0  0  0  0  0
   -3.0149    2.8122   -0.4974 O   0  0  0  0  0  0  0  0  0  0  0  0
   -1.8403    2.5042   -0.2661 C   0  0  0  0  0  0  0  0  0  0  0  0
   -0.7669    3.5530   -0.1682 C   0  0  0  0  0  0  0  0  0  0  0  0
    0.5928    3.2200   -0.0041 C   0  0  0  0  0  0  0  0  0  0  0  0
    1.5647    4.2233    0.0773 C   0  0  0  0  0  0  0  0  0  0  0  0
    1.1936    5.5834    0.0011 C   0  0  0  0  0  0  0  0  0  0  0  0
   -0.1693    5.9196   -0.1658 C   0  0  0  0  0  0  0  0  0  0  0  0
   -1.1324    4.9116   -0.2521 C   0  0  0  0  0  0  0  0  0  0  0  0
    3.4679    6.1331    0.2527 H   0  0  0  0  0  0  0  0  0  0  0  0
    0.8808    2.1597    0.0505 H   0  0  0  0  0  0  0  0  0  0  0  0
    2.6241    3.9490    0.2028 H   0  0  0  0  0  0  0  0  0  0  0  0
   -0.4691    6.9771   -0.2290 H   0  0  0  0  0  0  0  0  0  0  0  0
   -2.1970    5.1526   -0.3883 H   0  0  0  0  0  0  0  0  0  0  0  0
  1 11  1  0  0  0  0
  3  4  2  0  0  0  0
  4  5  1  0  0  0  0
  4  2  1  0  0  0  0
  5  6  1  0  0  0  0
  6 12  1  0  0  0  0
  6  7  2  0  0  0  0
  7 13  1  0  0  0  0
  8  7  1  0  0  0  0
  8  1  1  0  0  0  0
  9  8  2  0  0  0  0
 10  5  2  0  0  0  0
 10  9  1  0  0  0  0
 14  9  1  0  0  0  0
 15 10  1  0  0  0  0
M  CHG  1   2  -1
M  END
