1
q = 0.0, confidence = 0.994

 33 34  0  0  0  0  0  0  0  0999 V2000
   -1.2669    0.7365   -0.3438 O   0  5  0  0  0  0  0  0  0  0  0  0
    6.1561   -1.0241   -0.0213 O   0  0  0  0  0  0  0  0  0  0  0  0
    1.1447    1.4132   -0.1041 N   0  0  0  0  0  4  0  0  0  0  0  0
    0.2928    0.7729   -0.2481 H   0  0  0  0  0  0  0  0  0  0  0  0
   -1.6509    1.9652   -0.1813 C   0  0  0  0  0  0  0  0  0  0  0  0
   -3.0237    2.3618   -0.1778 C   0  0  0  0  0  0  0  0  0  0  0  0
   -3.7853    1.5838   -0.3265 H   0  0  0  0  0  0  0  0  0  0  0  0
   -3.3726    3.6957   -0.0099 C   0  0  0  0  0  0  0  0  0  0  0  0
   -4.4382    3.9743   -0.0162 H   0  0  0  0  0  0  0  0  0  0  0  0
   -2.3928    4.7113    0.1658 C   0  0  0  0  0  0  0  0  0  0  0  0
   -2.7007    5.7585    0.2960 H   0  0  0  0  0  0  0  0  0  0  0  0
   -1.0510    4.3652    0.1711 C   0  0  0  0  0  0  0  0  0  0  0  0
   -0.2742    5.1352    0.3079 H   0  0  0  0  0  0  0  0  0  0  0  0
   -0.6449    3.0084    0.0037 C   0  0  0  0  0  0  0  0  0  0  0  0
    0.7346    2.6663    0.0413 C   0  0  0  0  0  0  0  0  0  0  0  0
    1.4861    3.4577    0.2075 H   0  0  0  0  0  0  0  0  0  0  0  0
    2.4390    0.8769   -0.0781 C   0  0  0  0  0  0  0  0  0  0  0  0
    3.6030    1.6616    0.0304 C   0  0  0  0  0  0  0  0  0  0  0  0
    3.5394    2.7577    0.0927 H   0  0  0  0  0  0  0  0  0  0  0  0
    4.8665    1.0588    0.0532 C   0  0  0  0  0  0  0  0  0  0  0  0
    5.7573    1.6946    0.1359 H   0  0  0  0  0  0  0  0  0  0  0  0
    4.9824   -0.3473   -0.0339 C   0  0  0  0  0  0  0  0  0  0  0  0
    3.8109   -1.1318   -0.1449 C   0  0  0  0  0  0  0  0  0  0  0  0
    3.9183   -2.2237   -0.2115 H   0  0  0  0  0  0  0  0  0  0  0  0
    2.5556   -0.5319   -0.1675 C   0  0  0  0  0  0  0  0  0  0  0  0
    1.6420   -1.1442   -0.2479 H   0  0  0  0  0  0  0  0  0  0  0  0
    7.3792   -0.2954    0.0889 C   0  0  0  0  0  0  0  0  0  0  0  0
    7.3778    0.3023    1.0300 H   0  0  0  0  0  0  0  0  0  0  0  0
    7.4679    0.4218   -0.7601 H   0  0  0  0  0  0  0  0  0  0  0  0
    8.5204   -1.2936    0.0795 C   0  0  0  0  0  0  0  0  0  0  0  0
    8.4310   -1.9995    0.9284 H   0  0  0  0  0  0  0  0  0  0  0  0
    9.4904   -0.7657    0.1634 H   0  0  0  0  0  0  0  0  0  0  0  0
    8.5208   -1.8801   -0.8602 H   0  0  0  0  0  0  0  0  0  0  0  0
  1  5  1  0  0  0  0
  2 27  1  0  0  0  0
  3 17  1  0  0  0  0
  3 15  2  0  0  0  0
  4  3  1  0  0  0  0
  5  6  2  0  0  0  0
  5 14  1  0  0  0  0
  6  8  1  0  0  0  0
  7  6  1  0  0  0  0
  8 10  2  0  0  0  0
  9  8  1  0  0  0  0
 10 12  1  0  0  0  0
 10 11  1  0  0  0  0
 12 13  1  0  0  0  0
 14 15  1  0  0  0  0
 14 12  2  0  0  0  0
 15 16  1  0  0  0  0
 17 18  1  0  0  0  0
 18 20  2  0  0  0  0
 18 19  1  0  0  0  0
 20 21  1  0  0  0  0
 22  2  1  0  0  0  0
 22 20  1  0  0  0  0
 23 22  2  0  0  0  0
 24 23  1  0  0  0  0
 25 23  1  0  0  0  0
 25 17  2  0  0  0  0
 26 25  1  0  0  0  0
 27 28  1  0  0  0  0
 29 27  1  0  0  0  0
 30 27  1  0  0  0  0
 30 32  1  0  0  0  0
 30 31  1  0  0  0  0
 33 30  1  0  0  0  0
M  CHG  1   1  -1
M  END
