1
q = 0.0, confidence = 0.99

 27 28  0  0  0  0  0  0  0  0999 V2000
   -0.5740    0.7687   -0.3572 O   0  5  0  0  0  0  0  0  0  0  0  0
    6.5362   -2.0013    0.0425 O   0  0  0  0  0  0  0  0  0  0  0  0
    7.3336   -1.4485    0.1423 H   0  0  0  0  0  0  0  0  0  0  0  0
    1.9044    1.0982   -0.0957 N   0  0  0  0  0  4  0  0  0  0  0  0
    0.9696    0.5868   -0.2492 H   0  0  0  0  0  0  0  0  0  0  0  0
   -0.7824    2.0391   -0.1948 C   0  0  0  0  0  0  0  0  0  0  0  0
   -2.0859    2.6243   -0.1999 C   0  0  0  0  0  0  0  0  0  0  0  0
   -2.9479    1.9607   -0.3551 H   0  0  0  0  0  0  0  0  0  0  0  0
   -2.2452    3.9938   -0.0322 C   0  0  0  0  0  0  0  0  0  0  0  0
   -3.2609    4.4195   -0.0452 H   0  0  0  0  0  0  0  0  0  0  0  0
   -1.1336    4.8617    0.1519 C   0  0  0  0  0  0  0  0  0  0  0  0
   -1.2925    5.9417    0.2816 H   0  0  0  0  0  0  0  0  0  0  0  0
    0.1462    4.3308    0.1662 C   0  0  0  0  0  0  0  0  0  0  0  0
    1.0224    4.9840    0.3099 H   0  0  0  0  0  0  0  0  0  0  0  0
    0.3588    2.9304   -0.0003 C   0  0  0  0  0  0  0  0  0  0  0  0
    1.6756    2.3969    0.0486 C   0  0  0  0  0  0  0  0  0  0  0  0
    2.5300    3.0740    0.2230 H   0  0  0  0  0  0  0  0  0  0  0  0
    3.1080    0.3821   -0.0558 C   0  0  0  0  0  0  0  0  0  0  0  0
    4.3711    0.9937    0.0814 C   0  0  0  0  0  0  0  0  0  0  0  0
    4.4658    2.0864    0.1575 H   0  0  0  0  0  0  0  0  0  0  0  0
    5.5274    0.2093    0.1163 C   0  0  0  0  0  0  0  0  0  0  0  0
    6.5123    0.6929    0.2214 H   0  0  0  0  0  0  0  0  0  0  0  0
    5.4441   -1.1964    0.0144 C   0  0  0  0  0  0  0  0  0  0  0  0
    4.1792   -1.8061   -0.1247 C   0  0  0  0  0  0  0  0  0  0  0  0
    4.1248   -2.9011   -0.2029 H   0  0  0  0  0  0  0  0  0  0  0  0
    3.0240   -1.0268   -0.1598 C   0  0  0  0  0  0  0  0  0  0  0  0
    2.0331   -1.4998   -0.2627 H   0  0  0  0  0  0  0  0  0  0  0  0
  1  6  1  0  0  0  0
  2  3  1  0  0  0  0
  4 18  1  0  0  0  0
  4 16  2  0  0  0  0
  5  4  1  0  0  0  0
  6 15  1  0  0  0  0
  7  6  2  0  0  0  0
  7  9  1  0  0  0  0
  8  7  1  0  0  0  0
  9 11  2  0  0  0  0
 10  9  1  0  0  0  0
 11 13  1  0  0  0  0
 11 12  1  0  0  0  0
 13 14  1  0  0  0  0
 15 16  1  0  0  0  0
 15 13  2  0  0  0  0
 16 17  1  0  0  0  0
 18 19  1  0  0  0  0
 19 21  2  0  0  0  0
 19 20  1  0  0  0  0
 21 22  1  0  0  0  0
 23  2  1  0  0  0  0
 23 21  1  0  0  0  0
 24 23  2  0  0  0  0
 25 24  1  0  0  0  0
 26 24  1  0  0  0  0
 26 18  2  0  0  0  0
 27 26  1  0  0  0  0
M  CHG  1   1  -1
M  END
