1
q = -1.0, confidence = 0.0

 13 13  0  0  0  0  0  0  0  0999 V2000
   -1.8012    0.4171   -1.5997 O   0  5  0  0  0  0  0  0  0  0  0  0
   -2.2627    2.4618   -0.6968 O   0  0  0  0  0  0  0  0  0  0  0  0
   -5.5376   -1.0393   -1.0499 N   0  0  0  0  0  0  0  0  0  0  0  0
   -7.1284    1.5860    1.5101 Cl  0  0  0  0  0  0  0  0  0  0  0  0
   -2.5689    1.3336   -1.1196 C   0  0  0  0  0  0  0  0  0  0  0  0
   -4.0107    0.8483   -0.9298 C   0  0  0  0  0  0  0  0  0  0  0  0
   -4.4222   -0.3974   -1.4414 C   0  0  0  0  0  0  0  0  0  0  0  0
   -3.7555   -0.9101   -2.1528 H   0  0  0  0  0  0  0  0  0  0  0  0
   -6.3420   -0.4171   -0.1673 C   0  0  0  0  0  0  0  0  0  0  0  0
   -7.2479   -0.9501    0.1701 H   0  0  0  0  0  0  0  0  0  0  0  0
   -6.0535    0.8645    0.3366 C   0  0  0  0  0  0  0  0  0  0  0  0
   -4.8674    1.5108   -0.0389 C   0  0  0  0  0  0  0  0  0  0  0  0
   -4.5572    2.4816    0.3752 H   0  0  0  0  0  0  0  0  0  0  0  0
  1  5  1  0  0  0  0
  3  9  1  0  0  0  0
  5  6  1  0  0  0  0
  5  2  2  0  0  0  0
  6 12  2  0  0  0  0
  7  3  2  0  0  0  0
  7  6  1  0  0  0  0
  8  7  1  0  0  0  0
  9 10  1  0  0  0  0
  9 11  2  0  0  0  0
 11  4  1  0  0  0  0
 12 11  1  0  0  0  0
 12 13  1  0  0  0  0
M  CHG  1   1  -1
M  END
