2
q = -1.0, confidence = 0.0

 36 38  0  0  0  0  0  0  0  0999 V2000
   -1.0846    0.2577    0.0665 P   0  0  0  0  0  0  0  0  0  0  0  0
    0.4793   -2.1974   -0.1486 O   0  5  0  0  0  0  0  0  0  0  0  0
   -0.4875   -2.8304   -0.7804 C   0  0  0  0  0  0  0  0  0  0  0  0
   -0.5004   -4.0592   -0.8411 O   0  0  0  0  0  0  0  0  0  0  0  0
   -1.6413   -2.0616   -1.4280 C   0  0  0  0  0  0  0  0  0  0  0  0
   -2.4234   -2.8051   -2.3334 C   0  0  0  0  0  0  0  0  0  0  0  0
   -2.1174   -3.8463   -2.5100 H   0  0  0  0  0  0  0  0  0  0  0  0
   -3.5404   -2.2488   -2.9683 C   0  0  0  0  0  0  0  0  0  0  0  0
   -4.1226   -2.8513   -3.6821 H   0  0  0  0  0  0  0  0  0  0  0  0
   -3.9193   -0.9281   -2.6857 C   0  0  0  0  0  0  0  0  0  0  0  0
   -4.7993   -0.4814   -3.1729 H   0  0  0  0  0  0  0  0  0  0  0  0
   -3.1686   -0.1728   -1.7742 C   0  0  0  0  0  0  0  0  0  0  0  0
   -3.4630    0.8638   -1.5512 H   0  0  0  0  0  0  0  0  0  0  0  0
   -2.0288   -0.7242   -1.1585 C   0  0  0  0  0  0  0  0  0  0  0  0
   -1.9239   -0.2159    1.6339 C   0  0  0  0  0  0  0  0  0  0  0  0
   -3.2231    0.2356    1.9510 C   0  0  0  0  0  0  0  0  0  0  0  0
   -3.7434    0.9416    1.2866 H   0  0  0  0  0  0  0  0  0  0  0  0
   -3.8628   -0.2285    3.1091 C   0  0  0  0  0  0  0  0  0  0  0  0
   -4.8728    0.1327    3.3556 H   0  0  0  0  0  0  0  0  0  0  0  0
   -3.2241   -1.1605    3.9445 C   0  0  0  0  0  0  0  0  0  0  0  0
   -3.7316   -1.5251    4.8505 H   0  0  0  0  0  0  0  0  0  0  0  0
   -1.9490   -1.6410    3.6098 C   0  0  0  0  0  0  0  0  0  0  0  0
   -1.4567   -2.3939    4.2438 H   0  0  0  0  0  0  0  0  0  0  0  0
   -1.3005   -1.1736    2.4565 C   0  0  0  0  0  0  0  0  0  0  0  0
   -0.3217   -1.5714    2.1545 H   0  0  0  0  0  0  0  0  0  0  0  0
   -1.4610    2.0258   -0.2386 C   0  0  0  0  0  0  0  0  0  0  0  0
   -1.8353    2.9135    0.7912 C   0  0  0  0  0  0  0  0  0  0  0  0
   -2.0112    2.5384    1.8093 H   0  0  0  0  0  0  0  0  0  0  0  0
   -1.9727    4.2855    0.5244 C   0  0  0  0  0  0  0  0  0  0  0  0
   -2.2655    4.9699    1.3352 H   0  0  0  0  0  0  0  0  0  0  0  0
   -1.7387    4.7808   -0.7671 C   0  0  0  0  0  0  0  0  0  0  0  0
   -1.8507    5.8559   -0.9745 H   0  0  0  0  0  0  0  0  0  0  0  0
   -1.3545    3.9000   -1.7931 C   0  0  0  0  0  0  0  0  0  0  0  0
   -1.1577    4.2839   -2.8056 H   0  0  0  0  0  0  0  0  0  0  0  0
   -1.2078    2.5309   -1.5349 C   0  0  0  0  0  0  0  0  0  0  0  0
   -0.8589    1.8436   -2.3227 H   0  0  0  0  0  0  0  0  0  0  0  0
  1 15  1  0  0  0  0
  3  2  1  0  0  0  0
  4  3  2  0  0  0  0
  5 14  1  0  0  0  0
  5  3  1  0  0  0  0
  6  5  2  0  0  0  0
  7  6  1  0  0  0  0
  8 10  2  0  0  0  0
  8  6  1  0  0  0  0
  9  8  1  0  0  0  0
 10 12  1  0  0  0  0
 11 10  1  0  0  0  0
 12 13  1  0  0  0  0
 12 14  2  0  0  0  0
 14  1  1  0  0  0  0
 15 16  2  0  0  0  0
 15 24  1  0  0  0  0
 16 18  1  0  0  0  0
 17 16  1  0  0  0  0
 18 19  1  0  0  0  0
 18 20  2  0  0  0  0
 20 21  1  0  0  0  0
 22 20  1  0  0  0  0
 22 23  1  0  0  0  0
 24 22  2  0  0  0  0
 25 24  1  0  0  0  0
 26  1  1  0  0  0  0
 26 27  1  0  0  0  0
 27 28  1  0  0  0  0
 29 27  2  0  0  0  0
 29 30  1  0  0  0  0
 31 29  1  0  0  0  0
 32 31  1  0  0  0  0
 33 35  1  0  0  0  0
 33 31  2  0  0  0  0
 34 33  1  0  0  0  0
 35 26  2  0  0  0  0
 36 35  1  0  0  0  0
M  CHG  1   2  -1
M  END
