2
q = -1.0, confidence = 0.0

 37 39  0  0  0  0  0  0  0  0999 V2000
    0.7015   -2.8236   -0.0207 S   0  0  0  0  0  0  0  0  0  0  0  0
   -0.6439   -2.2826   -0.6430 O   0  0  0  0  0  1  0  0  0  0  0  0
    0.8256   -4.2667   -0.2955 O   0  0  0  0  0  1  0  0  0  0  0  0
    0.8606   -2.3265    1.3738 O   0  0  0  0  0  1  0  0  0  0  0  0
    1.9775   -1.9698   -0.9853 C   0  0  0  0  0  0  0  0  0  0  0  0
    2.8647   -2.7606   -1.7269 C   0  0  0  0  0  0  0  0  0  0  0  0
    2.7242   -3.8513   -1.7097 H   0  0  0  0  0  0  0  0  0  0  0  0
    3.8935   -2.1524   -2.4611 C   0  0  0  0  0  0  0  0  0  0  0  0
    4.5932   -2.7733   -3.0409 H   0  0  0  0  0  0  0  0  0  0  0  0
    4.0255   -0.7558   -2.4554 C   0  0  0  0  0  0  0  0  0  0  0  0
    4.8315   -0.2725   -3.0279 H   0  0  0  0  0  0  0  0  0  0  0  0
    3.1282    0.0346   -1.7203 C   0  0  0  0  0  0  0  0  0  0  0  0
    3.2290    1.1300   -1.7351 H   0  0  0  0  0  0  0  0  0  0  0  0
    2.0938   -0.5599   -0.9697 C   0  0  0  0  0  0  0  0  0  0  0  0
    0.9018    0.4496    0.0146 P   0  0  0  0  0  0  0  0  0  0  0  0
    1.0302    2.1214   -0.7441 C   0  0  0  0  0  0  0  0  0  0  0  0
    0.7435    2.2487   -2.1223 C   0  0  0  0  0  0  0  0  0  0  0  0
    0.5395    1.3471   -2.7208 H   0  0  0  0  0  0  0  0  0  0  0  0
    0.7034    3.5135   -2.7219 C   0  0  0  0  0  0  0  0  0  0  0  0
    0.4863    3.6008   -3.7973 H   0  0  0  0  0  0  0  0  0  0  0  0
    0.9292    4.6678   -1.9511 C   0  0  0  0  0  0  0  0  0  0  0  0
    0.8914    5.6617   -2.4221 H   0  0  0  0  0  0  0  0  0  0  0  0
    1.1952    4.5484   -0.5797 C   0  0  0  0  0  0  0  0  0  0  0  0
    1.3654    5.4483    0.0307 H   0  0  0  0  0  0  0  0  0  0  0  0
    1.2475    3.2808    0.0249 C   0  0  0  0  0  0  0  0  0  0  0  0
    1.4572    3.1945    1.1010 H   0  0  0  0  0  0  0  0  0  0  0  0
    1.6941    0.6286    1.6614 C   0  0  0  0  0  0  0  0  0  0  0  0
    0.9684    0.2958    2.8207 C   0  0  0  0  0  0  0  0  0  0  0  0
   -0.0480   -0.1109    2.7177 H   0  0  0  0  0  0  0  0  0  0  0  0
    1.5603    0.4463    4.0831 C   0  0  0  0  0  0  0  0  0  0  0  0
    0.9915    0.1785    4.9862 H   0  0  0  0  0  0  0  0  0  0  0  0
    2.8776    0.9180    4.1933 C   0  0  0  0  0  0  0  0  0  0  0  0
    3.3417    1.0297    5.1851 H   0  0  0  0  0  0  0  0  0  0  0  0
    3.6095    1.2350    3.0369 C   0  0  0  0  0  0  0  0  0  0  0  0
    4.6473    1.5917    3.1191 H   0  0  0  0  0  0  0  0  0  0  0  0
    3.0215    1.0891    1.7724 C   0  0  0  0  0  0  0  0  0  0  0  0
    3.6014    1.3294    0.8681 H   0  0  0  0  0  0  0  0  0  0  0  0
  1  4  1  0  0  0  0
  2  1  1  0  0  0  0
  3  1  1  0  0  0  0
  5 14  1  0  0  0  0
  5  1  1  0  0  0  0
  6  7  1  0  0  0  0
  6  5  2  0  0  0  0
  8 10  2  0  0  0  0
  8  6  1  0  0  0  0
  9  8  1  0  0  0  0
 10 12  1  0  0  0  0
 11 10  1  0  0  0  0
 12 14  2  0  0  0  0
 13 12  1  0  0  0  0
 14 15  1  0  0  0  0
 15 27  1  0  0  0  0
 16 15  1  0  0  0  0
 16 25  1  0  0  0  0
 17 16  2  0  0  0  0
 18 17  1  0  0  0  0
 19 17  1  0  0  0  0
 19 21  2  0  0  0  0
 20 19  1  0  0  0  0
 21 23  1  0  0  0  0
 22 21  1  0  0  0  0
 23 25  2  0  0  0  0
 23 24  1  0  0  0  0
 25 26  1  0  0  0  0
 27 36  2  0  0  0  0
 27 28  1  0  0  0  0
 28 30  2  0  0  0  0
 29 28  1  0  0  0  0
 30 32  1  0  0  0  0
 30 31  1  0  0  0  0
 32 33  1  0  0  0  0
 34 35  1  0  0  0  0
 34 32  2  0  0  0  0
 36 34  1  0  0  0  0
 37 36  1  0  0  0  0
M  END
