1
q = -1.0, confidence = 0.0

 14 13  0  0  0  0  0  0  0  0999 V2000
   -1.4484   -0.9956   -0.2076 O   0  0  0  0  0  1  0  0  0  0  0  0
   -1.7733   -2.1490    0.4870 C   0  0  0  0  0  0  0  0  0  0  0  0
   -1.8731   -1.9731    1.5966 H   0  0  0  0  0  0  0  0  0  0  0  0
   -0.9979   -2.9593    0.3922 H   0  0  0  0  0  0  0  0  0  0  0  0
   -3.1058   -2.7279   -0.0105 C   0  0  0  0  0  0  0  0  0  0  0  0
   -2.9903   -3.0024   -1.0837 H   0  0  0  0  0  0  0  0  0  0  0  0
   -3.3120   -3.6759    0.5376 H   0  0  0  0  0  0  0  0  0  0  0  0
   -4.2887   -1.7695    0.1399 C   0  0  0  0  0  0  0  0  0  0  0  0
   -4.0362   -0.8297   -0.3948 H   0  0  0  0  0  0  0  0  0  0  0  0
   -4.3944   -1.4896    1.2129 H   0  0  0  0  0  0  0  0  0  0  0  0
   -5.6095   -2.3326   -0.3835 C   0  0  0  0  0  0  0  0  0  0  0  0
   -5.5376   -2.5875   -1.4620 H   0  0  0  0  0  0  0  0  0  0  0  0
   -6.4440   -1.6107   -0.2670 H   0  0  0  0  0  0  0  0  0  0  0  0
   -5.8963   -3.2623    0.1523 H   0  0  0  0  0  0  0  0  0  0  0  0
  1  2  1  0  0  0  0
  2  3  1  0  0  0  0
  4  2  1  0  0  0  0
  5  8  1  0  0  0  0
  5  2  1  0  0  0  0
  5  7  1  0  0  0  0
  6  5  1  0  0  0  0
  8 10  1  0  0  0  0
  9  8  1  0  0  0  0
 11 13  1  0  0  0  0
 11  8  1  0  0  0  0
 11 14  1  0  0  0  0
 12 11  1  0  0  0  0
M  END
