1
q = 0.0, confidence = 0.95

 14 14  0  0  0  0  0  0  0  0999 V2000
    0.0206   -1.4527   -2.0982 O   0  0  0  0  0  1  0  0  0  0  0  0
   -1.1322   -0.8105   -1.9985 C   0  0  0  0  0  3  0  0  0  0  0  0
   -1.4280   -0.0954   -2.8054 H   0  0  0  0  0  0  0  0  0  0  0  0
   -2.2443   -1.3916   -1.2074 C   0  0  0  0  0  0  0  0  0  0  0  0
   -2.0613   -2.6070   -0.5045 C   0  0  0  0  0  0  0  0  0  0  0  0
   -1.1008   -3.1297   -0.6281 H   0  0  0  0  0  0  0  0  0  0  0  0
   -3.0786   -3.1235    0.3080 C   0  0  0  0  0  0  0  0  0  0  0  0
   -2.9185   -4.0708    0.8470 H   0  0  0  0  0  0  0  0  0  0  0  0
   -4.3026   -2.4432    0.4367 C   0  0  0  0  0  0  0  0  0  0  0  0
   -5.0995   -2.8475    1.0792 H   0  0  0  0  0  0  0  0  0  0  0  0
   -4.5049   -1.2484   -0.2780 C   0  0  0  0  0  0  0  0  0  0  0  0
   -5.4665   -0.7170   -0.1982 H   0  0  0  0  0  0  0  0  0  0  0  0
   -3.4912   -0.7331   -1.0961 C   0  0  0  0  0  0  0  0  0  0  0  0
   -3.6541    0.2032   -1.6547 H   0  0  0  0  0  0  0  0  0  0  0  0
  1  2  1  0  0  0  0
  2  4  1  0  0  0  0
  3  2  1  0  0  0  0
  4 13  2  0  0  0  0
  4  5  1  0  0  0  0
  5  7  2  0  0  0  0
  6  5  1  0  0  0  0
  7  9  1  0  0  0  0
  7  8  1  0  0  0  0
  9 10  1  0  0  0  0
 11 12  1  0  0  0  0
 11  9  2  0  0  0  0
 13 11  1  0  0  0  0
 14 13  1  0  0  0  0
M  END
