1
q = -1.0, confidence = 0.008

 17 17  0  0  0  0  0  0  0  0999 V2000
   -1.4052   -0.5649   -0.0695 O   0  5  0  0  0  0  0  0  0  0  0  0
   -3.4558   -1.4615   -0.3275 O   0  0  0  0  0  0  0  0  0  0  0  0
   -2.7225   -0.4845   -0.1678 C   0  0  0  0  0  0  0  0  0  0  0  0
   -3.2463    0.9181   -0.0671 C   0  0  0  0  0  0  0  0  0  0  0  0
   -2.3961    2.0168    0.1627 C   0  0  0  0  0  0  0  0  0  0  0  0
   -1.3162    1.8395    0.2735 H   0  0  0  0  0  0  0  0  0  0  0  0
   -2.9256    3.3107    0.2532 C   0  0  0  0  0  0  0  0  0  0  0  0
   -2.2527    4.1637    0.4356 H   0  0  0  0  0  0  0  0  0  0  0  0
   -4.3095    3.5432    0.1154 C   0  0  0  0  0  0  0  0  0  0  0  0
   -5.1522    2.4322   -0.1137 C   0  0  0  0  0  0  0  0  0  0  0  0
   -6.2371    2.5920   -0.2223 H   0  0  0  0  0  0  0  0  0  0  0  0
   -4.6317    1.1384   -0.2030 C   0  0  0  0  0  0  0  0  0  0  0  0
   -5.2793    0.2667   -0.3789 H   0  0  0  0  0  0  0  0  0  0  0  0
   -4.8840    4.9338    0.2054 C   0  0  0  0  0  0  0  0  0  0  0  0
   -5.6618    4.9978    0.9947 H   0  0  0  0  0  0  0  0  0  0  0  0
   -5.3730    5.2277   -0.7473 H   0  0  0  0  0  0  0  0  0  0  0  0
   -4.1048    5.6866    0.4324 H   0  0  0  0  0  0  0  0  0  0  0  0
  2  3  2  0  0  0  0
  3  1  1  0  0  0  0
  3  4  1  0  0  0  0
  4  5  1  0  0  0  0
  5  7  2  0  0  0  0
  5  6  1  0  0  0  0
  7  8  1  0  0  0  0
  9 14  1  0  0  0  0
  9  7  1  0  0  0  0
 10  9  2  0  0  0  0
 11 10  1  0  0  0  0
 12 10  1  0  0  0  0
 12  4  2  0  0  0  0
 13 12  1  0  0  0  0
 14 17  1  0  0  0  0
 14 15  1  0  0  0  0
 16 14  1  0  0  0  0
M  CHG  1   1  -1
M  END
