1
q = -1.0, confidence = 0.01

 22 24  0  0  0  0  0  0  0  0999 V2000
   -0.7027   -0.9036   -1.0749 O   0  5  0  0  0  0  0  0  0  0  0  0
    4.0210   -1.0759   -0.7707 O   0  0  0  0  0  0  0  0  0  0  0  0
    8.7349   -1.1513   -0.2334 O   0  0  0  0  0  0  0  0  0  0  0  0
    4.1934    1.6836   -1.3749 N   0  0  0  0  0  0  0  0  0  0  0  0
    1.7779    1.7375   -1.5975 C   0  0  0  0  0  3  0  0  0  0  0  0
    1.8603    2.8083   -1.8334 H   0  0  0  0  0  0  0  0  0  0  0  0
    0.5477    1.0999   -1.5349 C   0  0  0  0  0  0  0  0  0  0  0  0
   -0.3865    1.6481   -1.7162 H   0  0  0  0  0  0  0  0  0  0  0  0
    0.4676   -0.2866   -1.1951 C   0  0  0  0  0  0  0  0  0  0  0  0
    1.6658   -1.0151   -0.9838 C   0  0  0  0  0  0  0  0  0  0  0  0
    1.6281   -2.0860   -0.7430 H   0  0  0  0  0  0  0  0  0  0  0  0
    2.8923   -0.3566   -1.0399 C   0  0  0  0  0  0  0  0  0  0  0  0
    2.9868    1.0358   -1.3394 C   0  0  0  0  0  0  0  0  0  0  0  0
    5.2799    0.9797   -1.1055 C   0  0  0  0  0  0  0  0  0  0  0  0
    5.2425   -0.4483   -0.7805 C   0  0  0  0  0  0  0  0  0  0  0  0
    6.3706   -1.1678   -0.4920 C   0  0  0  0  0  3  0  0  0  0  0  0
    6.3121   -2.2390   -0.2540 H   0  0  0  0  0  0  0  0  0  0  0  0
    7.6921   -0.5313   -0.4949 C   0  0  0  0  0  0  0  0  0  0  0  0
    7.7148    0.9147   -0.8322 C   0  0  0  0  0  0  0  0  0  0  0  0
    8.7084    1.3880   -0.8355 H   0  0  0  0  0  0  0  0  0  0  0  0
    6.5806    1.6167   -1.1177 C   0  0  0  0  0  0  0  0  0  0  0  0
    6.5907    2.6890   -1.3651 H   0  0  0  0  0  0  0  0  0  0  0  0
  4 13  2  0  0  0  0
  4 14  1  0  0  0  0
  5  7  1  0  0  0  0
  5 13  1  0  0  0  0
  6  5  1  0  0  0  0
  7  9  2  0  0  0  0
  8  7  1  0  0  0  0
  9  1  1  0  0  0  0
  9 10  1  0  0  0  0
 10 11  1  0  0  0  0
 12 10  2  0  0  0  0
 12  2  1  0  0  0  0
 13 12  1  0  0  0  0
 14 15  2  0  0  0  0
 15  2  1  0  0  0  0
 15 16  1  0  0  0  0
 16 17  1  0  0  0  0
 18 16  1  0  0  0  0
 18  3  2  0  0  0  0
 19 18  1  0  0  0  0
 20 19  1  0  0  0  0
 21 14  1  0  0  0  0
 21 19  2  0  0  0  0
 22 21  1  0  0  0  0
M  CHG  1   1  -1
M  END
