1
q = -1.0, confidence = 0.0

 19 19  0  0  1  0  0  0  0  0999 V2000
    0.5696    0.8700   -1.7377 O   0  0  0  0  0  1  0  0  0  0  0  0
    1.5480   -0.3648    0.3003 O   0  0  0  0  0  0  0  0  0  0  0  0
    1.8714    0.3679   -1.8993 C   0  0  0  0  0  0  0  0  0  0  0  0
    2.6260    1.1609   -1.6763 H   0  0  0  0  0  0  0  0  0  0  0  0
    2.0197    0.0338   -2.9509 H   0  0  0  0  0  0  0  0  0  0  0  0
    2.0992   -0.8114   -0.9502 C   0  0  1  0  0  0  0  0  0  0  0  0
    1.4982   -1.6914   -1.2917 H   0  0  0  0  0  0  0  0  0  0  0  0
    3.5600   -1.2218   -0.7763 C   0  0  0  0  0  0  0  0  0  0  0  0
    4.1494   -0.3135   -0.5260 H   0  0  0  0  0  0  0  0  0  0  0  0
    3.9495   -1.6124   -1.7398 H   0  0  0  0  0  0  0  0  0  0  0  0
    3.7040   -2.2616    0.3440 C   0  0  0  0  0  0  0  0  0  0  0  0
    3.2214   -3.2139    0.0279 H   0  0  0  0  0  0  0  0  0  0  0  0
    4.7735   -2.4949    0.5222 H   0  0  0  0  0  0  0  0  0  0  0  0
    3.0344   -1.7551    1.6285 C   0  0  0  0  0  0  0  0  0  0  0  0
    3.0433   -2.5330    2.4202 H   0  0  0  0  0  0  0  0  0  0  0  0
    3.5884   -0.8776    2.0253 H   0  0  0  0  0  0  0  0  0  0  0  0
    1.5947   -1.3355    1.3493 C   0  0  0  0  0  0  0  0  0  0  0  0
    0.9825   -2.2221    1.0490 H   0  0  0  0  0  0  0  0  0  0  0  0
    1.1055   -0.8501    2.2145 H   0  0  0  0  0  0  0  0  0  0  0  0
  2 17  1  0  0  0  0
  3  1  1  0  0  0  0
  3  4  1  0  0  0  0
  3  6  1  0  0  0  0
  5  3  1  0  0  0  0
  6  7  1  6  0  0  0
  6  8  1  0  0  0  0
  6  2  1  0  0  0  0
  8  9  1  0  0  0  0
  8 11  1  0  0  0  0
 10  8  1  0  0  0  0
 11 13  1  0  0  0  0
 11 14  1  0  0  0  0
 12 11  1  0  0  0  0
 14 16  1  0  0  0  0
 14 15  1  0  0  0  0
 17 14  1  0  0  0  0
 17 19  1  0  0  0  0
 18 17  1  0  0  0  0
M  END
