2
q = -1.0, confidence = 0.012

 18 18  0  0  0  0  0  0  0  0999 V2000
    1.5638   -1.5489   -0.5369 S   0  0  0  0  0  0  0  0  0  0  0  0
    0.9119   -0.6343    0.5601 O   0  0  0  0  0  1  0  0  0  0  0  0
    1.1028   -1.1558   -1.9031 O   0  0  0  0  0  1  0  0  0  0  0  0
    1.4394   -2.9851   -0.1722 O   0  0  0  0  0  1  0  0  0  0  0  0
    3.2941   -1.0895   -0.3916 C   0  0  0  0  0  0  0  0  0  0  0  0
    3.9205   -1.1171    0.8662 C   0  0  0  0  0  0  0  0  0  0  0  0
    3.3509   -1.4208    1.7564 H   0  0  0  0  0  0  0  0  0  0  0  0
    5.2639   -0.7416    0.9659 C   0  0  0  0  0  0  0  0  0  0  0  0
    5.7571   -0.7550    1.9510 H   0  0  0  0  0  0  0  0  0  0  0  0
    6.0019   -0.3448   -0.1728 C   0  0  0  0  0  0  0  0  0  0  0  0
    5.3481   -0.3371   -1.4204 C   0  0  0  0  0  0  0  0  0  0  0  0
    5.9058   -0.0329   -2.3203 H   0  0  0  0  0  0  0  0  0  0  0  0
    3.9996   -0.7068   -1.5385 C   0  0  0  0  0  0  0  0  0  0  0  0
    3.4799   -0.6940   -2.5071 H   0  0  0  0  0  0  0  0  0  0  0  0
    7.4522    0.0456   -0.0452 C   0  0  0  0  0  0  0  0  0  0  0  0
    7.5950    0.8233    0.7331 H   0  0  0  0  0  0  0  0  0  0  0  0
    7.8568    0.4360   -0.9987 H   0  0  0  0  0  0  0  0  0  0  0  0
    8.0746   -0.8241    0.2541 H   0  0  0  0  0  0  0  0  0  0  0  0
  1  5  1  0  0  0  0
  1  4  1  0  0  0  0
  1  2  1  0  0  0  0
  3  1  1  0  0  0  0
  5  6  1  0  0  0  0
  6  8  2  0  0  0  0
  6  7  1  0  0  0  0
  8  9  1  0  0  0  0
 10 15  1  0  0  0  0
 10  8  1  0  0  0  0
 11 10  2  0  0  0  0
 12 11  1  0  0  0  0
 13 11  1  0  0  0  0
 13  5  2  0  0  0  0
 14 13  1  0  0  0  0
 15 18  1  0  0  0  0
 15 16  1  0  0  0  0
 17 15  1  0  0  0  0
M  END
