3
q = -1.0, confidence = 0.012

 29 28  0  0  0  0  0  0  0  0999 V2000
    2.7348   -0.0552    0.6602 P   0  0  0  0  0  0  0  0  0  0  0  0
    1.0846   -0.2827    0.0198 C   0  0  0  0  0  2  0  0  0  0  0  0
    0.5919   -1.4238   -0.3085 O   0  0  0  0  0  1  0  0  0  0  0  0
    3.7724   -1.5154   -0.0263 C   0  0  0  0  0  0  0  0  0  0  0  0
    3.2929   -2.7207    0.8112 C   0  0  0  0  0  0  0  0  0  0  0  0
    3.5353   -1.7885   -1.5198 C   0  0  0  0  0  0  0  0  0  0  0  0
    5.2663   -1.2758    0.2422 C   0  0  0  0  0  0  0  0  0  0  0  0
    3.2147    1.6811    0.0173 C   0  0  0  0  0  0  0  0  0  0  0  0
    4.6075    2.0394    0.5676 C   0  0  0  0  0  0  0  0  0  0  0  0
    2.1839    2.6465    0.6309 C   0  0  0  0  0  0  0  0  0  0  0  0
    3.1917    1.7887   -1.5142 C   0  0  0  0  0  0  0  0  0  0  0  0
    2.2148   -2.9189    0.6579 H   0  0  0  0  0  0  0  0  0  0  0  0
    3.4745   -2.5633    1.8935 H   0  0  0  0  0  0  0  0  0  0  0  0
    3.8545   -3.6268    0.4971 H   0  0  0  0  0  0  0  0  0  0  0  0
    4.1152   -2.6879   -1.8212 H   0  0  0  0  0  0  0  0  0  0  0  0
    3.8727   -0.9478   -2.1550 H   0  0  0  0  0  0  0  0  0  0  0  0
    2.4693   -1.9893   -1.7376 H   0  0  0  0  0  0  0  0  0  0  0  0
    5.8217   -2.2188    0.0495 H   0  0  0  0  0  0  0  0  0  0  0  0
    5.6923   -0.5031   -0.4265 H   0  0  0  0  0  0  0  0  0  0  0  0
    5.4623   -0.9777    1.2923 H   0  0  0  0  0  0  0  0  0  0  0  0
    5.4168    1.4491    0.0997 H   0  0  0  0  0  0  0  0  0  0  0  0
    4.8122    3.1095    0.3523 H   0  0  0  0  0  0  0  0  0  0  0  0
    4.6646    1.8986    1.6660 H   0  0  0  0  0  0  0  0  0  0  0  0
    2.4502    3.6826    0.3313 H   0  0  0  0  0  0  0  0  0  0  0  0
    1.1591    2.4458    0.2669 H   0  0  0  0  0  0  0  0  0  0  0  0
    2.1909    2.6004    1.7379 H   0  0  0  0  0  0  0  0  0  0  0  0
    2.1872    1.5618   -1.9223 H   0  0  0  0  0  0  0  0  0  0  0  0
    3.4505    2.8274   -1.8141 H   0  0  0  0  0  0  0  0  0  0  0  0
    3.9307    1.1153   -1.9902 H   0  0  0  0  0  0  0  0  0  0  0  0
  2  1  1  0  0  0  0
  3  2  1  0  0  0  0
  4  7  1  0  0  0  0
  4  1  1  0  0  0  0
  4  5  1  0  0  0  0
  5 13  1  0  0  0  0
  6  4  1  0  0  0  0
  7 20  1  0  0  0  0
  8  9  1  0  0  0  0
  8 10  1  0  0  0  0
  8  1  1  0  0  0  0
  9 23  1  0  0  0  0
 10 26  1  0  0  0  0
 11  8  1  0  0  0  0
 12  5  1  0  0  0  0
 14  5  1  0  0  0  0
 15  6  1  0  0  0  0
 16  6  1  0  0  0  0
 17  6  1  0  0  0  0
 18  7  1  0  0  0  0
 19  7  1  0  0  0  0
 21  9  1  0  0  0  0
 22  9  1  0  0  0  0
 24 10  1  0  0  0  0
 25 10  1  0  0  0  0
 27 11  1  0  0  0  0
 28 11  1  0  0  0  0
 29 11  1  0  0  0  0
M  END
