1
q = 0.0, confidence = 1.0

 25 24  0  0  0  0  0  0  0  0999 V2000
    1.6285   -1.0936   -0.1072 O   0  5  0  0  0  0  0  0  0  0  0  0
    2.2148   -2.2422   -0.0458 C   0  0  0  0  0  0  0  0  0  0  0  0
    3.6210   -2.3151   -0.0874 C   0  0  0  0  0  0  0  0  0  0  0  0
    4.4881   -1.1932   -0.1490 C   0  0  0  0  0  0  0  0  0  0  0  0
    4.0237    0.0562   -0.1709 N   0  0  0  0  0  4  0  0  0  0  0  0
    4.7874    1.3068   -0.1370 C   0  0  0  0  0  0  0  0  0  0  0  0
    4.9534    1.7816    1.3147 C   0  0  0  0  0  0  0  0  0  0  0  0
    5.4935    1.0326    1.9282 H   0  0  0  0  0  0  0  0  0  0  0  0
    3.9569    1.9504    1.7698 H   0  0  0  0  0  0  0  0  0  0  0  0
    5.5238    2.7314    1.3451 H   0  0  0  0  0  0  0  0  0  0  0  0
    4.0704    2.3445   -1.0048 C   0  0  0  0  0  0  0  0  0  0  0  0
    3.0514    2.5359   -0.6114 H   0  0  0  0  0  0  0  0  0  0  0  0
    3.9654    1.9917   -2.0489 H   0  0  0  0  0  0  0  0  0  0  0  0
    4.6371    3.2961   -1.0046 H   0  0  0  0  0  0  0  0  0  0  0  0
    5.7887    1.1012   -0.5695 H   0  0  0  0  0  0  0  0  0  0  0  0
    2.9923    0.1431   -0.1107 H   0  0  0  0  0  0  0  0  0  0  0  0
    5.9764   -1.4162   -0.1893 C   0  0  0  0  0  0  0  0  0  0  0  0
    6.4153   -0.9939   -1.1168 H   0  0  0  0  0  0  0  0  0  0  0  0
    6.2108   -2.4943   -0.1551 H   0  0  0  0  0  0  0  0  0  0  0  0
    6.4803   -0.9201    0.6648 H   0  0  0  0  0  0  0  0  0  0  0  0
    4.0852   -3.3087   -0.0580 H   0  0  0  0  0  0  0  0  0  0  0  0
    1.3517   -3.4573    0.0787 C   0  0  0  0  0  0  0  0  0  0  0  0
    1.9351   -4.3948    0.1016 H   0  0  0  0  0  0  0  0  0  0  0  0
    0.6170   -3.4628   -0.7536 H   0  0  0  0  0  0  0  0  0  0  0  0
    0.7390   -3.3499    0.9997 H   0  0  0  0  0  0  0  0  0  0  0  0
  1  2  1  0  0  0  0
  2 22  1  0  0  0  0
  3 21  1  0  0  0  0
  3  2  2  0  0  0  0
  4  3  1  0  0  0  0
  5  4  2  0  0  0  0
  5  6  1  0  0  0  0
  5 16  1  0  0  0  0
  6  7  1  0  0  0  0
  7 10  1  0  0  0  0
  7  9  1  0  0  0  0
  7  8  1  0  0  0  0
 11 14  1  0  0  0  0
 11 12  1  0  0  0  0
 11  6  1  0  0  0  0
 13 11  1  0  0  0  0
 15  6  1  0  0  0  0
 17 19  1  0  0  0  0
 17  4  1  0  0  0  0
 17 20  1  0  0  0  0
 18 17  1  0  0  0  0
 22 23  1  0  0  0  0
 22 25  1  0  0  0  0
 24 22  1  0  0  0  0
M  CHG  1   1  -1
M  END
