1
q = -1.0, confidence = 0.0

 18 18  0  0  0  0  0  0  0  0999 V2000
    0.8844   -0.8541    0.1535 O   0  5  0  0  0  0  0  0  0  0  0  0
    2.1894   -0.7731   -0.0037 C   0  0  0  0  0  0  0  0  0  0  0  0
    3.0676   -1.5062    0.8526 C   0  0  0  0  0  0  0  0  0  0  0  0
    4.4611   -1.4399    0.7161 C   0  0  0  0  0  0  0  0  0  0  0  0
    5.0185   -0.6285   -0.2989 C   0  0  0  0  0  0  0  0  0  0  0  0
    4.1899    0.0952   -1.1742 C   0  0  0  0  0  0  0  0  0  0  0  0
    2.7930    0.0132   -1.0209 C   0  0  0  0  0  0  0  0  0  0  0  0
    5.3659   -2.2272    1.6344 C   0  0  0  0  0  0  0  0  0  0  0  0
    4.7733    0.9529   -2.2728 C   0  0  0  0  0  0  0  0  0  0  0  0
    2.6190   -2.1382    1.6360 H   0  0  0  0  0  0  0  0  0  0  0  0
    6.1132   -0.5681   -0.4098 H   0  0  0  0  0  0  0  0  0  0  0  0
    2.1283    0.5524   -1.7092 H   0  0  0  0  0  0  0  0  0  0  0  0
    5.9580   -2.9785    1.0698 H   0  0  0  0  0  0  0  0  0  0  0  0
    6.0976   -1.5669    2.1457 H   0  0  0  0  0  0  0  0  0  0  0  0
    4.7920   -2.7662    2.4133 H   0  0  0  0  0  0  0  0  0  0  0  0
    4.4519    0.5995   -3.2757 H   0  0  0  0  0  0  0  0  0  0  0  0
    4.4377    2.0084   -2.1852 H   0  0  0  0  0  0  0  0  0  0  0  0
    5.8805    0.9487   -2.2537 H   0  0  0  0  0  0  0  0  0  0  0  0
  2  1  1  0  0  0  0
  2  3  1  0  0  0  0
  3 10  1  0  0  0  0
  4  3  2  0  0  0  0
  4  8  1  0  0  0  0
  5  4  1  0  0  0  0
  6  7  1  0  0  0  0
  6  5  2  0  0  0  0
  7  2  2  0  0  0  0
  8 14  1  0  0  0  0
  8 15  1  0  0  0  0
  9 18  1  0  0  0  0
  9 17  1  0  0  0  0
  9  6  1  0  0  0  0
 11  5  1  0  0  0  0
 12  7  1  0  0  0  0
 13  8  1  0  0  0  0
 16  9  1  0  0  0  0
M  CHG  1   1  -1
M  END
