1
q = 0.0, confidence = 0.984

 15 15  0  0  1  0  0  0  0  0999 V2000
   -2.3443   -0.3580    0.0685 O   0  0  0  0  0  1  0  0  0  0  0  0
   -3.0148   -1.1863   -1.9384 N   0  0  0  0  0  0  0  0  0  0  0  0
   -2.0458   -1.1002   -2.3047 H   0  0  0  0  0  0  0  0  0  0  0  0
   -3.7431   -1.6038   -2.5176 H   0  0  0  0  0  0  0  0  0  0  0  0
   -4.8741   -0.9300    1.2205 C   0  0  0  0  0  0  0  0  0  0  0  0
   -4.0153   -0.9334    1.9068 H   0  0  0  0  0  0  0  0  0  0  0  0
   -3.2631   -0.7901   -0.6856 C   0  0  1  0  0  3  0  0  0  0  0  0
   -4.6640   -0.8697   -0.1697 C   0  0  0  0  0  0  0  0  0  0  0  0
   -7.2693   -0.9991    0.8975 N   0  0  0  0  0  0  0  0  0  0  0  0
   -5.7917   -0.8640   -1.0130 C   0  0  0  0  0  0  0  0  0  0  0  0
   -5.7022   -0.7757   -2.1067 H   0  0  0  0  0  0  0  0  0  0  0  0
   -6.1916   -1.0018    1.6974 C   0  0  0  0  0  0  0  0  0  0  0  0
   -6.3860   -1.0648    2.7826 H   0  0  0  0  0  0  0  0  0  0  0  0
   -7.0665   -0.9266   -0.4262 C   0  0  0  0  0  0  0  0  0  0  0  0
   -7.9680   -0.9116   -1.0634 H   0  0  0  0  0  0  0  0  0  0  0  0
  2  7  1  0  0  0  0
  3  2  1  0  0  0  0
  4  2  1  0  0  0  0
  5 12  1  0  0  0  0
  5  6  1  0  0  0  0
  7  8  1  0  0  0  0
  7  1  1  1  0  0  0
  8  5  2  0  0  0  0
  9 12  2  0  0  0  0
 10 14  2  0  0  0  0
 10  8  1  0  0  0  0
 11 10  1  0  0  0  0
 12 13  1  0  0  0  0
 14  9  1  0  0  0  0
 15 14  1  0  0  0  0
M  END
