2
q = nan, confidence = 0.0

 25 24  0  0  0  0  0  0  0  0999 V2000
   -2.2301   -0.4691   -0.1827 P   0  0  0  0  0  4  0  0  0  0  0  0
   -0.8503    0.1618   -0.2662 O   0  0  0  0  0  1  0  0  0  0  0  0
   -3.3136    0.3943   -1.0438 O   0  0  0  0  0  0  0  0  0  0  0  0
   -2.8747   -0.5293    1.2990 O   0  0  0  0  0  0  0  0  0  0  0  0
   -2.8851    1.2016   -2.1741 C   0  0  0  0  0  0  0  0  0  0  0  0
   -2.6643    2.6446   -1.7647 C   0  0  0  0  0  0  0  0  0  0  0  0
   -2.7944    0.6290    2.1778 C   0  0  0  0  0  0  0  0  0  0  0  0
   -4.0702    1.4472    2.1204 C   0  0  0  0  0  0  0  0  0  0  0  0
   -2.3561   -2.1835   -0.7383 C   0  0  0  0  0  0  0  0  0  0  0  0
   -3.7642   -2.7752   -0.6395 C   0  0  0  0  0  0  0  0  0  0  0  0
   -3.6987    1.1078   -2.9213 H   0  0  0  0  0  0  0  0  0  0  0  0
   -1.9595    0.7739   -2.6144 H   0  0  0  0  0  0  0  0  0  0  0  0
   -3.5802    3.0736   -1.3116 H   0  0  0  0  0  0  0  0  0  0  0  0
   -2.4011    3.2543   -2.6527 H   0  0  0  0  0  0  0  0  0  0  0  0
   -1.8317    2.7208   -1.0391 H   0  0  0  0  0  0  0  0  0  0  0  0
   -2.6190    0.2091    3.1880 H   0  0  0  0  0  0  0  0  0  0  0  0
   -1.9001    1.2282    1.9045 H   0  0  0  0  0  0  0  0  0  0  0  0
   -4.2284    1.8668    1.1082 H   0  0  0  0  0  0  0  0  0  0  0  0
   -4.0116    2.2856    2.8434 H   0  0  0  0  0  0  0  0  0  0  0  0
   -4.9495    0.8257    2.3805 H   0  0  0  0  0  0  0  0  0  0  0  0
   -1.9769   -2.1747   -1.7823 H   0  0  0  0  0  0  0  0  0  0  0  0
   -1.6118   -2.7520   -0.1429 H   0  0  0  0  0  0  0  0  0  0  0  0
   -4.1099   -2.7994    0.4116 H   0  0  0  0  0  0  0  0  0  0  0  0
   -3.7746   -3.8101   -1.0333 H   0  0  0  0  0  0  0  0  0  0  0  0
   -4.4891   -2.1748   -1.2230 H   0  0  0  0  0  0  0  0  0  0  0  0
  1  4  1  0  0  0  0
  2  1  1  0  0  0  0
  3  1  1  0  0  0  0
  4  7  1  0  0  0  0
  5  6  1  0  0  0  0
  5  3  1  0  0  0  0
  6 13  1  0  0  0  0
  6 15  1  0  0  0  0
  7 16  1  0  0  0  0
  8  7  1  0  0  0  0
  8 20  1  0  0  0  0
  8 19  1  0  0  0  0
  9 10  1  0  0  0  0
  9  1  1  0  0  0  0
  9 22  1  0  0  0  0
 10 23  1  0  0  0  0
 11  5  1  0  0  0  0
 12  5  1  0  0  0  0
 14  6  1  0  0  0  0
 17  7  1  0  0  0  0
 18  8  1  0  0  0  0
 21  9  1  0  0  0  0
 24 10  1  0  0  0  0
 25 10  1  0  0  0  0
M  END
