1
q = -1.0, confidence = 0.0

 24 24  0  0  0  0  0  0  0  0999 V2000
   -1.2429    0.5729   -0.3174 O   0  5  0  0  0  0  0  0  0  0  0  0
   -4.8260   -0.7291    1.3773 C   0  0  0  0  0  0  0  0  0  0  0  0
   -5.7811   -1.0618    1.8105 H   0  0  0  0  0  0  0  0  0  0  0  0
   -2.3921    0.1378    0.2211 C   0  0  0  0  0  0  0  0  0  0  0  0
   -2.4049   -0.6580    1.3940 C   0  0  0  0  0  0  0  0  0  0  0  0
   -1.4460   -0.9318    1.8503 H   0  0  0  0  0  0  0  0  0  0  0  0
   -3.6070   -1.0875    1.9677 C   0  0  0  0  0  0  0  0  0  0  0  0
   -3.5835   -1.7076    2.8772 H   0  0  0  0  0  0  0  0  0  0  0  0
   -4.8199    0.0714    0.2226 C   0  0  0  0  0  0  0  0  0  0  0  0
   -5.7864    0.3483   -0.2195 H   0  0  0  0  0  0  0  0  0  0  0  0
   -3.6339    0.5308   -0.3820 C   0  0  0  0  0  0  0  0  0  0  0  0
   -3.6604    1.4365   -1.6299 C   0  0  0  0  0  0  0  0  0  0  0  0
   -2.9803    2.7881   -1.3021 C   0  0  0  0  0  0  0  0  0  0  0  0
   -3.0144    3.4588   -2.1867 H   0  0  0  0  0  0  0  0  0  0  0  0
   -1.9239    2.6336   -1.0152 H   0  0  0  0  0  0  0  0  0  0  0  0
   -3.5028    3.2961   -0.4655 H   0  0  0  0  0  0  0  0  0  0  0  0
   -2.9250    0.7565   -2.8091 C   0  0  0  0  0  0  0  0  0  0  0  0
   -3.4051   -0.2100   -3.0652 H   0  0  0  0  0  0  0  0  0  0  0  0
   -1.8621    0.5675   -2.5720 H   0  0  0  0  0  0  0  0  0  0  0  0
   -2.9675    1.4041   -3.7100 H   0  0  0  0  0  0  0  0  0  0  0  0
   -5.0989    1.7363   -2.0906 C   0  0  0  0  0  0  0  0  0  0  0  0
   -5.6454    0.8136   -2.3728 H   0  0  0  0  0  0  0  0  0  0  0  0
   -5.0708    2.3927   -2.9839 H   0  0  0  0  0  0  0  0  0  0  0  0
   -5.6860    2.2607   -1.3096 H   0  0  0  0  0  0  0  0  0  0  0  0
  1  4  1  0  0  0  0
  2  3  1  0  0  0  0
  2  7  1  0  0  0  0
  4  5  1  0  0  0  0
  5  6  1  0  0  0  0
  5  7  2  0  0  0  0
  7  8  1  0  0  0  0
  9  2  2  0  0  0  0
 10  9  1  0  0  0  0
 11  4  2  0  0  0  0
 11  9  1  0  0  0  0
 12 13  1  0  0  0  0
 12 11  1  0  0  0  0
 13 15  1  0  0  0  0
 13 16  1  0  0  0  0
 14 13  1  0  0  0  0
 17 19  1  0  0  0  0
 17 12  1  0  0  0  0
 18 17  1  0  0  0  0
 20 17  1  0  0  0  0
 21 12  1  0  0  0  0
 21 24  1  0  0  0  0
 22 21  1  0  0  0  0
 23 21  1  0  0  0  0
M  CHG  1   1  -1
M  END
