1
q = -1.0, confidence = 0.002

 22 23  0  0  0  0  0  0  0  0999 V2000
    3.0015    0.5605   -1.1837 O   0  5  0  0  0  0  0  0  0  0  0  0
    2.3830    1.7406   -1.1001 C   0  0  0  0  0  0  0  0  0  0  0  0
    2.9926    2.9183   -1.6093 C   0  0  0  0  0  0  0  0  0  0  0  0
    3.9778    2.8312   -2.0915 H   0  0  0  0  0  0  0  0  0  0  0  0
    2.3434    4.1542   -1.4922 C   0  0  0  0  0  0  0  0  0  0  0  0
    2.8277    5.0554   -1.9009 H   0  0  0  0  0  0  0  0  0  0  0  0
    1.0861    4.2694   -0.8762 C   0  0  0  0  0  0  0  0  0  0  0  0
    0.5828    5.2455   -0.8260 H   0  0  0  0  0  0  0  0  0  0  0  0
    0.4483    3.1158   -0.3652 C   0  0  0  0  0  0  0  0  0  0  0  0
    1.1110    1.8786   -0.4859 C   0  0  0  0  0  0  0  0  0  0  0  0
    0.6108    0.9724   -0.1027 H   0  0  0  0  0  0  0  0  0  0  0  0
   -0.8885    3.1747    0.2826 C   0  0  0  0  0  0  0  0  0  0  0  0
   -1.2959    4.3101    1.0202 C   0  0  0  0  0  0  0  0  0  0  0  0
   -0.6055    5.1610    1.1240 H   0  0  0  0  0  0  0  0  0  0  0  0
   -2.5500    4.3538    1.6453 C   0  0  0  0  0  0  0  0  0  0  0  0
   -2.8412    5.2470    2.2199 H   0  0  0  0  0  0  0  0  0  0  0  0
   -3.4270    3.2608    1.5511 C   0  0  0  0  0  0  0  0  0  0  0  0
   -4.4104    3.2934    2.0447 H   0  0  0  0  0  0  0  0  0  0  0  0
   -3.0384    2.1258    0.8210 C   0  0  0  0  0  0  0  0  0  0  0  0
   -3.7157    1.2625    0.7305 H   0  0  0  0  0  0  0  0  0  0  0  0
   -1.7869    2.0844    0.1911 C   0  0  0  0  0  0  0  0  0  0  0  0
   -1.5154    1.1989   -0.4020 H   0  0  0  0  0  0  0  0  0  0  0  0
  1  2  1  0  0  0  0
  2 10  1  0  0  0  0
  3  5  1  0  0  0  0
  3  2  2  0  0  0  0
  4  3  1  0  0  0  0
  5  7  2  0  0  0  0
  6  5  1  0  0  0  0
  7  8  1  0  0  0  0
  7  9  1  0  0  0  0
  9 12  1  0  0  0  0
 10  9  2  0  0  0  0
 10 11  1  0  0  0  0
 12 13  1  0  0  0  0
 13 14  1  0  0  0  0
 13 15  2  0  0  0  0
 15 16  1  0  0  0  0
 17 15  1  0  0  0  0
 17 18  1  0  0  0  0
 19 17  2  0  0  0  0
 20 19  1  0  0  0  0
 21 12  2  0  0  0  0
 21 19  1  0  0  0  0
 22 21  1  0  0  0  0
M  CHG  1   1  -1
M  END
