4
q = 0.0, confidence = 0.884

 14 13  0  0  1  0  0  0  0  0999 V2000
    2.6305   -2.8693   -2.2250 F   0  0  0  0  0  0  0  0  0  0  0  0
    1.5148   -1.1020   -2.8518 F   0  0  0  0  0  0  0  0  0  0  0  0
    3.3369   -0.8890   -1.6518 F   0  0  0  0  0  0  0  0  0  0  0  0
    0.1764   -2.2439   -0.6746 O   0  0  0  0  0  1  0  0  0  0  0  0
    2.2274   -2.1336    0.4850 O   0  0  0  0  0  0  0  0  0  0  0  0
    1.3726   -1.7201   -0.5534 C   0  0  1  0  0  3  0  0  0  0  0  0
    2.2202   -1.6406   -1.8210 C   0  0  0  0  0  0  0  0  0  0  0  0
    1.7059   -3.1299    1.3613 C   0  0  0  0  0  0  0  0  0  0  0  0
    1.3314   -3.9933    0.7675 H   0  0  0  0  0  0  0  0  0  0  0  0
    0.8289   -2.7336    1.9256 H   0  0  0  0  0  0  0  0  0  0  0  0
    2.8169   -3.5364    2.3105 C   0  0  0  0  0  0  0  0  0  0  0  0
    3.6877   -3.9279    1.7482 H   0  0  0  0  0  0  0  0  0  0  0  0
    2.4638   -4.3235    3.0062 H   0  0  0  0  0  0  0  0  0  0  0  0
    3.1590   -2.6687    2.9100 H   0  0  0  0  0  0  0  0  0  0  0  0
  1  7  1  0  0  0  0
  2  7  1  0  0  0  0
  5  8  1  0  0  0  0
  6  4  1  6  0  0  0
  6  5  1  0  0  0  0
  7  3  1  0  0  0  0
  7  6  1  0  0  0  0
  8 10  1  0  0  0  0
  8 11  1  0  0  0  0
  9  8  1  0  0  0  0
 11 14  1  0  0  0  0
 11 13  1  0  0  0  0
 12 11  1  0  0  0  0
M  END
