1
q = -1.0, confidence = 0.002

 17 18  0  0  0  0  0  0  0  0999 V2000
    0.1235    1.3025   -1.7206 O   0  5  0  0  0  0  0  0  0  0  0  0
    2.1536    1.2976   -0.0224 N   0  0  0  0  0  0  0  0  0  0  0  0
    1.2086    1.9461   -2.1044 C   0  0  0  0  0  0  0  0  0  0  0  0
    2.3291    1.9699   -1.2000 C   0  0  0  0  0  0  0  0  0  0  0  0
    3.1345    1.3199    0.8795 C   0  0  0  0  0  0  0  0  0  0  0  0
    4.3620    1.9905    0.6542 C   0  0  0  0  0  0  0  0  0  0  0  0
    4.5661    2.6568   -0.5460 C   0  0  0  0  0  0  0  0  0  0  0  0
    3.5360    2.6749   -1.5271 C   0  0  0  0  0  0  0  0  0  0  0  0
    3.6221    3.3414   -2.7824 C   0  0  0  0  0  0  0  0  0  0  0  0
    2.5356    3.3034   -3.6517 C   0  0  0  0  0  0  0  0  0  0  0  0
    1.3364    2.6224   -3.3278 C   0  0  0  0  0  0  0  0  0  0  0  0
    2.9496    0.7923    1.8262 H   0  0  0  0  0  0  0  0  0  0  0  0
    5.1365    1.9686    1.4340 H   0  0  0  0  0  0  0  0  0  0  0  0
    5.5143    3.1795   -0.7482 H   0  0  0  0  0  0  0  0  0  0  0  0
    4.5437    3.8807   -3.0462 H   0  0  0  0  0  0  0  0  0  0  0  0
    2.6020    3.8221   -4.6209 H   0  0  0  0  0  0  0  0  0  0  0  0
    0.4846    2.6185   -4.0234 H   0  0  0  0  0  0  0  0  0  0  0  0
  2  5  1  0  0  0  0
  3  1  1  0  0  0  0
  3  4  1  0  0  0  0
  4  2  2  0  0  0  0
  5 12  1  0  0  0  0
  6  5  2  0  0  0  0
  6 13  1  0  0  0  0
  7  6  1  0  0  0  0
  8  4  1  0  0  0  0
  8  7  2  0  0  0  0
  9  8  1  0  0  0  0
 10 11  1  0  0  0  0
 10  9  2  0  0  0  0
 11  3  2  0  0  0  0
 14  7  1  0  0  0  0
 15  9  1  0  0  0  0
 16 10  1  0  0  0  0
 17 11  1  0  0  0  0
M  CHG  1   1  -1
M  END
