4
q = 0.0, confidence = 0.986

 34 35  0  0  0  0  0  0  0  0999 V2000
   -1.3900   -2.4015    1.6118 Cl  0  0  0  0  0  0  0  0  0  0  0  0
   -2.1122   -0.5575    1.0127 P   0  0  1  0  0  4  0  0  0  0  0  0
   -3.3626   -0.0655   -1.5193 N   0  0  0  0  0  0  0  0  0  0  0  0
   -0.9641    0.4474    0.8716 O   0  0  0  0  0  1  0  0  0  0  0  0
   -3.4834   -2.1789   -0.7532 N   0  0  0  0  0  0  0  0  0  0  0  0
   -4.1622   -2.0906   -1.9363 C   0  0  0  0  0  0  0  0  0  0  0  0
   -4.6552   -2.9611   -2.3868 H   0  0  0  0  0  0  0  0  0  0  0  0
   -2.9988   -0.9598   -0.5178 C   0  0  0  0  0  0  0  0  0  0  0  0
   -4.1038   -0.7915   -2.4289 C   0  0  0  0  0  0  0  0  0  0  0  0
   -4.4901   -0.3223   -3.3397 H   0  0  0  0  0  0  0  0  0  0  0  0
   -3.1115    1.3449   -1.6209 C   0  0  0  0  0  0  0  0  0  0  0  0
   -4.2090    2.2143   -1.7732 C   0  0  0  0  0  0  0  0  0  0  0  0
   -5.2311    1.8071   -1.7929 H   0  0  0  0  0  0  0  0  0  0  0  0
   -3.9827    3.5931   -1.8795 C   0  0  0  0  0  0  0  0  0  0  0  0
   -4.8373    4.2764   -1.9958 H   0  0  0  0  0  0  0  0  0  0  0  0
   -2.6719    4.0985   -1.8254 C   0  0  0  0  0  0  0  0  0  0  0  0
   -2.4989    5.1826   -1.9024 H   0  0  0  0  0  0  0  0  0  0  0  0
   -1.7999    1.8372   -1.5824 C   0  0  0  0  0  0  0  0  0  0  0  0
   -0.9281    1.1809   -1.4649 H   0  0  0  0  0  0  0  0  0  0  0  0
   -4.3816   -1.1236    2.5318 C   0  0  0  0  0  0  0  0  0  0  0  0
   -5.1224   -0.7644    3.2758 H   0  0  0  0  0  0  0  0  0  0  0  0
   -3.9382   -2.0638    2.9122 H   0  0  0  0  0  0  0  0  0  0  0  0
   -4.9210   -1.3560    1.5923 H   0  0  0  0  0  0  0  0  0  0  0  0
   -1.5880    3.2206   -1.6760 C   0  0  0  0  0  0  0  0  0  0  0  0
   -0.5482    3.5757   -1.6322 H   0  0  0  0  0  0  0  0  0  0  0  0
   -3.3144   -0.0389    2.3302 C   0  0  0  0  0  0  0  0  0  0  0  0
   -3.9407    1.2754    1.8215 C   0  0  0  0  0  0  0  0  0  0  0  0
   -4.5970    1.6852    2.6168 H   0  0  0  0  0  0  0  0  0  0  0  0
   -4.5657    1.1167    0.9206 H   0  0  0  0  0  0  0  0  0  0  0  0
   -3.1710    2.0352    1.5824 H   0  0  0  0  0  0  0  0  0  0  0  0
   -2.4955    0.2058    3.6098 C   0  0  0  0  0  0  0  0  0  0  0  0
   -3.1764    0.5624    4.4097 H   0  0  0  0  0  0  0  0  0  0  0  0
   -1.7127    0.9720    3.4485 H   0  0  0  0  0  0  0  0  0  0  0  0
   -2.0062   -0.7229    3.9633 H   0  0  0  0  0  0  0  0  0  0  0  0
  2  4  1  6  0  0  0
  2  1  1  0  0  0  0
  2 26  1  0  0  0  0
  3  8  1  0  0  0  0
  5  8  2  0  0  0  0
  6  5  1  0  0  0  0
  7  6  1  0  0  0  0
  8  2  1  0  0  0  0
  9  6  2  0  0  0  0
  9  3  1  0  0  0  0
 10  9  1  0  0  0  0
 11 18  1  0  0  0  0
 11  3  1  0  0  0  0
 12 11  2  0  0  0  0
 13 12  1  0  0  0  0
 14 16  2  0  0  0  0
 14 12  1  0  0  0  0
 15 14  1  0  0  0  0
 16 24  1  0  0  0  0
 17 16  1  0  0  0  0
 18 19  1  0  0  0  0
 20 22  1  0  0  0  0
 20 21  1  0  0  0  0
 23 20  1  0  0  0  0
 24 25  1  0  0  0  0
 24 18  2  0  0  0  0
 26 20  1  0  0  0  0
 26 31  1  0  0  0  0
 27 26  1  0  0  0  0
 27 28  1  0  0  0  0
 29 27  1  0  0  0  0
 30 27  1  0  0  0  0
 31 34  1  0  0  0  0
 31 32  1  0  0  0  0
 33 31  1  0  0  0  0
M  END
