4
q = -1.0, confidence = 0.012

 10  9  0  0  0  0  0  0  0  0999 V2000
    2.4020    0.6204    0.0316 C   0  0  0  0  0  0  0  0  0  0  0  0
    3.4995    1.6571   -0.3548 C   0  0  0  0  0  0  0  0  0  0  0  0
    4.0356    2.4612    0.8612 C   0  0  0  0  0  0  0  0  0  0  0  0
    1.3535    0.6908   -0.7120 O   0  5  0  0  0  0  0  0  0  0  0  0
    2.6726   -0.1717    0.9391 O   0  0  0  0  0  0  0  0  0  0  0  0
    3.0746    2.5484   -1.2814 F   0  0  0  0  0  0  0  0  0  0  0  0
    4.5637    0.9663   -0.8964 F   0  0  0  0  0  0  0  0  0  0  0  0
    4.7464    1.6860    1.6912 F   0  0  0  0  0  0  0  0  0  0  0  0
    2.9991    2.9939    1.5387 F   0  0  0  0  0  0  0  0  0  0  0  0
    4.8290    3.4670    0.4398 F   0  0  0  0  0  0  0  0  0  0  0  0
  1  5  2  0  0  0  0
  2  1  1  0  0  0  0
  2  3  1  0  0  0  0
  3  9  1  0  0  0  0
  3  8  1  0  0  0  0
  4  1  1  0  0  0  0
  6  2  1  0  0  0  0
  7  2  1  0  0  0  0
 10  3  1  0  0  0  0
M  CHG  1   4  -1
M  END
