2
q = -2.0, confidence = 0.746

 26 27  0  0  0  0  0  0  0  0999 V2000
    1.4138    0.3354   -3.0643 O   0  5  0  0  0  0  0  0  0  0  0  0
   -0.2781   -0.7034   -1.9965 O   0  0  0  0  0  0  0  0  0  0  0  0
    0.8846   -0.0499   -2.0384 C   0  0  0  0  0  0  0  0  0  0  0  0
    1.3850    0.0894   -0.5946 C   0  0  0  0  0  3  0  0  0  0  0  0
    2.3605   -1.0358   -0.2857 C   0  0  0  0  0  0  0  0  0  0  0  0
    3.4937   -0.8383    0.5321 C   0  0  0  0  0  0  0  0  0  0  0  0
    4.3770   -1.8924    0.8158 C   0  0  0  0  0  0  0  0  0  0  0  0
    4.1584   -3.1687    0.2820 C   0  0  0  0  0  0  0  0  0  0  0  0
    3.0465   -3.3768   -0.5523 C   0  0  0  0  0  0  0  0  0  0  0  0
    2.1649   -2.3285   -0.8339 C   0  0  0  0  0  0  0  0  0  0  0  0
    1.8415    1.4657   -0.1782 C   0  0  0  0  0  0  0  0  0  0  0  0
    2.2614    2.4251   -1.1286 C   0  0  0  0  0  0  0  0  0  0  0  0
    2.6751    3.7056   -0.7285 C   0  0  0  0  0  0  0  0  0  0  0  0
    2.7003    4.0591    0.6282 C   0  0  0  0  0  0  0  0  0  0  0  0
    2.3162    3.1073    1.5875 C   0  0  0  0  0  0  0  0  0  0  0  0
    1.8948    1.8311    1.1881 C   0  0  0  0  0  0  0  0  0  0  0  0
    3.7004    0.1573    0.9470 H   0  0  0  0  0  0  0  0  0  0  0  0
    5.2500   -1.7041    1.4596 H   0  0  0  0  0  0  0  0  0  0  0  0
    4.8512   -3.9942    0.5045 H   0  0  0  0  0  0  0  0  0  0  0  0
    2.8636   -4.3686   -0.9933 H   0  0  0  0  0  0  0  0  0  0  0  0
    1.3024   -2.5137   -1.4911 H   0  0  0  0  0  0  0  0  0  0  0  0
    2.2650    2.1455   -2.1908 H   0  0  0  0  0  0  0  0  0  0  0  0
    2.9884    4.4332   -1.4933 H   0  0  0  0  0  0  0  0  0  0  0  0
    3.0275    5.0629    0.9390 H   0  0  0  0  0  0  0  0  0  0  0  0
    2.3444    3.3584    2.6592 H   0  0  0  0  0  0  0  0  0  0  0  0
    1.6023    1.1020    1.9551 H   0  0  0  0  0  0  0  0  0  0  0  0
  1  3  1  0  0  0  0
  3  2  2  0  0  0  0
  3  4  1  0  0  0  0
  4  5  1  0  0  0  0
  4 11  1  0  0  0  0
  5  6  1  0  0  0  0
  6  7  2  0  0  0  0
  6 17  1  0  0  0  0
  7 18  1  0  0  0  0
  8 19  1  0  0  0  0
  8  7  1  0  0  0  0
  9  8  2  0  0  0  0
 10  9  1  0  0  0  0
 10  5  2  0  0  0  0
 11 16  1  0  0  0  0
 12 13  1  0  0  0  0
 12 11  2  0  0  0  0
 13 14  2  0  0  0  0
 14 24  1  0  0  0  0
 14 15  1  0  0  0  0
 15 25  1  0  0  0  0
 16 15  2  0  0  0  0
 16 26  1  0  0  0  0
 20  9  1  0  0  0  0
 21 10  1  0  0  0  0
 22 12  1  0  0  0  0
 23 13  1  0  0  0  0
M  CHG  1   1  -1
M  END
