1
q = -1.0, confidence = 0.02

 44 43  0  0  0  0  0  0  0  0999 V2000
    0.1526    0.5224   -0.4244 O   0  0  0  0  0  1  0  0  0  0  0  0
    1.6778    0.0401   -0.0500 Si  0  0  0  0  0  0  0  0  0  0  0  0
    1.8556   -0.7271    1.4306 O   0  0  0  0  0  0  0  0  0  0  0  0
    1.7877   -0.1774    2.7604 C   0  0  0  0  0  0  0  0  0  0  0  0
    3.1508    0.4405    3.1057 C   0  0  0  0  0  0  0  0  0  0  0  0
    3.1520    0.8604    4.1322 H   0  0  0  0  0  0  0  0  0  0  0  0
    3.9438   -0.3317    3.0440 H   0  0  0  0  0  0  0  0  0  0  0  0
    3.3915    1.2434    2.3828 H   0  0  0  0  0  0  0  0  0  0  0  0
    1.4786   -1.3652    3.6802 C   0  0  0  0  0  0  0  0  0  0  0  0
    1.4459   -1.0499    4.7425 H   0  0  0  0  0  0  0  0  0  0  0  0
    2.2571   -2.1457    3.5683 H   0  0  0  0  0  0  0  0  0  0  0  0
    0.5002   -1.8133    3.4139 H   0  0  0  0  0  0  0  0  0  0  0  0
    0.6729    0.8760    2.8633 C   0  0  0  0  0  0  0  0  0  0  0  0
    0.5921    1.2577    3.9010 H   0  0  0  0  0  0  0  0  0  0  0  0
    0.8805    1.7331    2.1925 H   0  0  0  0  0  0  0  0  0  0  0  0
   -0.3013    0.4349    2.5703 H   0  0  0  0  0  0  0  0  0  0  0  0
    2.6651    1.3973    0.0255 O   0  0  0  0  0  0  0  0  0  0  0  0
    2.6637    2.5451   -0.8456 C   0  0  0  0  0  0  0  0  0  0  0  0
    2.4417    2.1241   -2.3066 C   0  0  0  0  0  0  0  0  0  0  0  0
    2.4801    3.0063   -2.9772 H   0  0  0  0  0  0  0  0  0  0  0  0
    3.2187    1.4041   -2.6299 H   0  0  0  0  0  0  0  0  0  0  0  0
    1.4520    1.6387   -2.4228 H   0  0  0  0  0  0  0  0  0  0  0  0
    1.5529    3.5040   -0.3892 C   0  0  0  0  0  0  0  0  0  0  0  0
    1.5336    4.4225   -1.0105 H   0  0  0  0  0  0  0  0  0  0  0  0
    1.7148    3.8006    0.6668 H   0  0  0  0  0  0  0  0  0  0  0  0
    0.5730    2.9935   -0.4662 H   0  0  0  0  0  0  0  0  0  0  0  0
    4.0438    3.1918   -0.6762 C   0  0  0  0  0  0  0  0  0  0  0  0
    4.1325    4.1110   -1.2895 H   0  0  0  0  0  0  0  0  0  0  0  0
    4.2130    3.4587    0.3861 H   0  0  0  0  0  0  0  0  0  0  0  0
    4.8390    2.4837   -0.9833 H   0  0  0  0  0  0  0  0  0  0  0  0
    2.1873   -1.0527   -1.2019 O   0  0  0  0  0  0  0  0  0  0  0  0
    3.3530   -1.8999   -1.2234 C   0  0  0  0  0  0  0  0  0  0  0  0
    3.5688   -2.2550   -2.6997 C   0  0  0  0  0  0  0  0  0  0  0  0
    4.4290   -2.9431   -2.8243 H   0  0  0  0  0  0  0  0  0  0  0  0
    3.7611   -1.3371   -3.2905 H   0  0  0  0  0  0  0  0  0  0  0  0
    2.6621   -2.7428   -3.1090 H   0  0  0  0  0  0  0  0  0  0  0  0
    3.0575   -3.1613   -0.3974 C   0  0  0  0  0  0  0  0  0  0  0  0
    3.9152   -3.8639   -0.4232 H   0  0  0  0  0  0  0  0  0  0  0  0
    2.8507   -2.8815    0.6535 H   0  0  0  0  0  0  0  0  0  0  0  0
    2.1653   -3.6811   -0.7996 H   0  0  0  0  0  0  0  0  0  0  0  0
    4.5831   -1.1687   -0.6640 C   0  0  0  0  0  0  0  0  0  0  0  0
    5.4801   -1.8173   -0.7273 H   0  0  0  0  0  0  0  0  0  0  0  0
    4.4279   -0.8938    0.3976 H   0  0  0  0  0  0  0  0  0  0  0  0
    4.7817   -0.2395   -1.2330 H   0  0  0  0  0  0  0  0  0  0  0  0
  1  2  1  0  0  0  0
  2 17  1  0  0  0  0
  2  3  1  0  0  0  0
  3  4  1  0  0  0  0
  4 13  1  0  0  0  0
  4  5  1  0  0  0  0
  4  9  1  0  0  0  0
  5  6  1  0  0  0  0
  7  5  1  0  0  0  0
  8  5  1  0  0  0  0
  9 10  1  0  0  0  0
 11  9  1  0  0  0  0
 12  9  1  0  0  0  0
 13 14  1  0  0  0  0
 15 13  1  0  0  0  0
 16 13  1  0  0  0  0
 18 27  1  0  0  0  0
 18 23  1  0  0  0  0
 18 17  1  0  0  0  0
 19 18  1  0  0  0  0
 20 19  1  0  0  0  0
 21 19  1  0  0  0  0
 22 19  1  0  0  0  0
 23 25  1  0  0  0  0
 24 23  1  0  0  0  0
 26 23  1  0  0  0  0
 27 29  1  0  0  0  0
 28 27  1  0  0  0  0
 30 27  1  0  0  0  0
 31  2  1  0  0  0  0
 32 31  1  0  0  0  0
 32 41  1  0  0  0  0
 32 37  1  0  0  0  0
 33 32  1  0  0  0  0
 34 33  1  0  0  0  0
 35 33  1  0  0  0  0
 36 33  1  0  0  0  0
 37 39  1  0  0  0  0
 38 37  1  0  0  0  0
 40 37  1  0  0  0  0
 41 43  1  0  0  0  0
 42 41  1  0  0  0  0
 44 41  1  0  0  0  0
M  END
