3
q = -1.0, confidence = 0.0

 14 14  0  0  0  0  0  0  0  0999 V2000
    3.1706   -0.6316    2.0339 Cl  0  0  0  0  0  0  0  0  0  0  0  0
    1.9136   -3.3467   -2.5134 Cl  0  0  0  0  0  0  0  0  0  0  0  0
    1.4851   -1.4793   -0.2536 O   0  5  0  0  0  0  0  0  0  0  0  0
    7.3744   -3.4473    0.6059 O   0  0  0  0  0  0  0  0  0  0  0  0
    3.6408   -1.7192    0.7512 C   0  0  0  0  0  0  0  0  0  0  0  0
    3.0818   -2.9294   -1.2768 C   0  0  0  0  0  0  0  0  0  0  0  0
    4.3520   -3.4976   -1.3062 C   0  0  0  0  0  0  0  0  0  0  0  0
    4.6583   -4.1979   -2.0930 H   0  0  0  0  0  0  0  0  0  0  0  0
    2.6602   -2.0059   -0.2611 C   0  0  0  0  0  0  0  0  0  0  0  0
    6.8721   -4.5299   -1.2285 O   0  0  0  0  0  0  0  0  0  0  0  0
    4.9168   -2.2754    0.7451 C   0  0  0  0  0  0  0  0  0  0  0  0
    5.6553   -2.0424    1.5221 H   0  0  0  0  0  0  0  0  0  0  0  0
    6.6020   -3.7559   -0.3057 N   0  0  0  0  0  0  0  0  0  0  0  0
    5.2594   -3.1595   -0.2901 C   0  0  0  0  0  0  0  0  0  0  0  0
  2  6  1  0  0  0  0
  5  1  1  0  0  0  0
  6  9  1  0  0  0  0
  7  6  2  0  0  0  0
  7 14  1  0  0  0  0
  8  7  1  0  0  0  0
  9  3  1  0  0  0  0
  9  5  2  0  0  0  0
 10 13  2  0  0  0  0
 11  5  1  0  0  0  0
 11 12  1  0  0  0  0
 13 14  1  0  0  0  0
 13  4  2  0  0  0  0
 14 11  2  0  0  0  0
M  CHG  1   3  -1
M  END
