1
q = -1.0, confidence = 0.0

 20 20  0  0  0  0  0  0  0  0999 V2000
    2.1700    0.1406   -0.0531 O   0  5  0  0  0  0  0  0  0  0  0  0
    2.7607   -2.0471   -0.1929 O   0  0  0  0  0  0  0  0  0  0  0  0
    9.1320   -1.7832   -0.0136 O   0  0  0  0  0  0  0  0  0  0  0  0
    7.4778   -3.3205   -0.1348 O   0  0  0  0  0  0  0  0  0  0  0  0
    8.2813   -3.8834   -0.1478 H   0  0  0  0  0  0  0  0  0  0  0  0
    7.7958    3.1198    0.2260 O   0  0  0  0  0  0  0  0  0  0  0  0
    5.5876    3.6069    0.2023 O   0  0  0  0  0  0  0  0  0  0  0  0
    5.9979    4.4965    0.2585 H   0  0  0  0  0  0  0  0  0  0  0  0
    4.4834   -0.4103   -0.0426 C   0  0  0  0  0  0  0  0  0  0  0  0
    5.4842   -1.3966   -0.0762 C   0  0  0  0  0  0  0  0  0  0  0  0
    5.1773   -2.4493   -0.1441 H   0  0  0  0  0  0  0  0  0  0  0  0
    6.8441   -1.0333   -0.0239 C   0  0  0  0  0  0  0  0  0  0  0  0
    7.2040    0.3234    0.0599 C   0  0  0  0  0  0  0  0  0  0  0  0
    8.2653    0.6084    0.0993 H   0  0  0  0  0  0  0  0  0  0  0  0
    6.2075    1.3143    0.0929 C   0  0  0  0  0  0  0  0  0  0  0  0
    4.8493    0.9432    0.0428 C   0  0  0  0  0  0  0  0  0  0  0  0
    4.0600    1.7059    0.0687 H   0  0  0  0  0  0  0  0  0  0  0  0
    3.0210   -0.8188   -0.1010 C   0  0  0  0  0  0  0  0  0  0  0  0
    7.9421   -2.0458   -0.0548 C   0  0  0  0  0  0  0  0  0  0  0  0
    6.6382    2.7408    0.1795 C   0  0  0  0  0  0  0  0  0  0  0  0
  2 18  2  0  0  0  0
  4 19  1  0  0  0  0
  5  4  1  0  0  0  0
  7  8  1  0  0  0  0
  9 16  1  0  0  0  0
 10  9  2  0  0  0  0
 10 12  1  0  0  0  0
 11 10  1  0  0  0  0
 12 13  2  0  0  0  0
 13 15  1  0  0  0  0
 13 14  1  0  0  0  0
 15 20  1  0  0  0  0
 16 17  1  0  0  0  0
 16 15  2  0  0  0  0
 18  1  1  0  0  0  0
 18  9  1  0  0  0  0
 19 12  1  0  0  0  0
 19  3  2  0  0  0  0
 20  7  1  0  0  0  0
 20  6  2  0  0  0  0
M  CHG  1   1  -1
M  END
