1
q = 0.0, confidence = 0.996

 32 33  0  0  1  0  0  0  0  0999 V2000
   -1.1298   -0.3790   -1.0584 O   0  5  0  0  0  0  0  0  0  0  0  0
    1.4023    2.6067    1.0339 O   0  0  0  0  0  0  0  0  0  0  0  0
    1.2960    3.5003    1.4114 H   0  0  0  0  0  0  0  0  0  0  0  0
   -0.4253    2.0747   -1.0885 N   0  0  0  0  0  4  0  0  0  0  0  0
   -2.6883    1.3684   -0.6016 C   0  0  0  0  0  0  0  0  0  0  0  0
   -1.6748    2.3430   -0.7341 C   0  0  0  0  0  0  0  0  0  0  0  0
   -1.9080    3.4091   -0.5702 H   0  0  0  0  0  0  0  0  0  0  0  0
   -4.0558    1.7490   -0.2584 C   0  0  0  0  0  0  0  0  0  0  0  0
   -2.3498   -0.0275   -0.8420 C   0  0  0  0  0  0  0  0  0  0  0  0
   -4.7040   -0.6280   -0.5401 C   0  0  0  0  0  0  0  0  0  0  0  0
   -5.5042   -1.3859   -0.5407 H   0  0  0  0  0  0  0  0  0  0  0  0
   -5.0657    0.7284   -0.2239 C   0  0  0  0  0  0  0  0  0  0  0  0
   -3.4177   -1.0013   -0.8344 C   0  0  0  0  0  0  0  0  0  0  0  0
   -3.1505   -2.0375   -1.0797 H   0  0  0  0  0  0  0  0  0  0  0  0
   -6.4037    1.0657    0.1071 C   0  0  0  0  0  0  0  0  0  0  0  0
   -7.1571    0.2626    0.1229 H   0  0  0  0  0  0  0  0  0  0  0  0
    0.6234    3.0584   -1.2360 C   0  0  0  0  0  0  0  0  0  0  0  0
    0.2022    4.0637   -1.0123 H   0  0  0  0  0  0  0  0  0  0  0  0
    0.9765    3.0760   -2.2912 H   0  0  0  0  0  0  0  0  0  0  0  0
   -4.4547    3.0765    0.0502 C   0  0  0  0  0  0  0  0  0  0  0  0
   -3.7181    3.8931    0.0455 H   0  0  0  0  0  0  0  0  0  0  0  0
   -5.7749    3.3844    0.3762 C   0  0  0  0  0  0  0  0  0  0  0  0
   -6.0449    4.4247    0.6136 H   0  0  0  0  0  0  0  0  0  0  0  0
   -6.7631    2.3762    0.4059 C   0  0  0  0  0  0  0  0  0  0  0  0
   -7.8032    2.6256    0.6627 H   0  0  0  0  0  0  0  0  0  0  0  0
    2.9418    3.7819   -0.4659 C   0  0  0  0  0  0  0  0  0  0  0  0
    2.6013    4.7972   -0.1643 H   0  0  0  0  0  0  0  0  0  0  0  0
    3.2982    3.8438   -1.5136 H   0  0  0  0  0  0  0  0  0  0  0  0
    3.8003    3.4922    0.1710 H   0  0  0  0  0  0  0  0  0  0  0  0
    1.8225    2.7590   -0.3163 C   0  0  1  0  0  0  0  0  0  0  0  0
    2.2125    1.7621   -0.6053 H   0  0  0  0  0  0  0  0  0  0  0  0
   -0.2699    1.0319   -1.2013 H   0  0  0  0  0  0  0  0  0  0  0  0
  1  9  1  0  0  0  0
  2  3  1  0  0  0  0
  4  6  2  0  0  0  0
  5  8  1  0  0  0  0
  6  5  1  0  0  0  0
  6  7  1  0  0  0  0
  8 12  2  0  0  0  0
  8 20  1  0  0  0  0
  9 13  1  0  0  0  0
  9  5  2  0  0  0  0
 10 12  1  0  0  0  0
 11 10  1  0  0  0  0
 12 15  1  0  0  0  0
 13 10  2  0  0  0  0
 14 13  1  0  0  0  0
 15 16  1  0  0  0  0
 15 24  2  0  0  0  0
 17  4  1  0  0  0  0
 17 18  1  0  0  0  0
 17 30  1  0  0  0  0
 19 17  1  0  0  0  0
 20 22  2  0  0  0  0
 21 20  1  0  0  0  0
 22 24  1  0  0  0  0
 22 23  1  0  0  0  0
 24 25  1  0  0  0  0
 26 30  1  0  0  0  0
 26 27  1  0  0  0  0
 26 29  1  0  0  0  0
 28 26  1  0  0  0  0
 30 31  1  6  0  0  0
 30  2  1  0  0  0  0
 32  4  1  0  0  0  0
M  CHG  1   1  -1
M  END
