2
q = -1.0, confidence = 0.016

 25 25  0  0  0  0  0  0  0  0999 V2000
   -2.9347   -0.4768    1.7266 Si  0  0  0  0  0  0  0  0  0  0  0  0
   -1.3930   -0.8991    2.2178 O   0  0  0  0  0  1  0  0  0  0  0  0
   -2.1908    4.1152   -2.2484 O   0  0  0  0  0  0  0  0  0  0  0  0
   -3.9025    0.0671    3.2596 C   0  0  0  0  0  0  0  0  0  0  0  0
   -3.4241    0.9414    3.7465 H   0  0  0  0  0  0  0  0  0  0  0  0
   -3.9389   -0.7542    4.0045 H   0  0  0  0  0  0  0  0  0  0  0  0
   -4.9442    0.3463    2.9985 H   0  0  0  0  0  0  0  0  0  0  0  0
   -3.8516   -1.9008    0.8844 C   0  0  0  0  0  0  0  0  0  0  0  0
   -3.3236   -2.2478   -0.0262 H   0  0  0  0  0  0  0  0  0  0  0  0
   -4.8867   -1.6135    0.6045 H   0  0  0  0  0  0  0  0  0  0  0  0
   -3.9129   -2.7622    1.5806 H   0  0  0  0  0  0  0  0  0  0  0  0
   -2.8256    0.9928    0.5163 C   0  0  0  0  0  0  0  0  0  0  0  0
   -2.2849    2.2246    0.9433 C   0  0  0  0  0  0  0  0  0  0  0  0
   -2.0052    2.3550    2.0027 H   0  0  0  0  0  0  0  0  0  0  0  0
   -2.0723    3.3020    0.0662 C   0  0  0  0  0  0  0  0  0  0  0  0
   -1.6457    4.2390    0.4500 H   0  0  0  0  0  0  0  0  0  0  0  0
   -2.3999    3.1576   -1.2974 C   0  0  0  0  0  0  0  0  0  0  0  0
   -2.9720    1.9492   -1.7471 C   0  0  0  0  0  0  0  0  0  0  0  0
   -3.2345    1.8632   -2.8122 H   0  0  0  0  0  0  0  0  0  0  0  0
   -3.1802    0.8953   -0.8510 C   0  0  0  0  0  0  0  0  0  0  0  0
   -3.6173   -0.0406   -1.2332 H   0  0  0  0  0  0  0  0  0  0  0  0
   -1.6017    5.3349   -1.8486 C   0  0  0  0  0  0  0  0  0  0  0  0
   -1.5146    5.9569   -2.7591 H   0  0  0  0  0  0  0  0  0  0  0  0
   -0.5854    5.1852   -1.4159 H   0  0  0  0  0  0  0  0  0  0  0  0
   -2.2245    5.8765   -1.1009 H   0  0  0  0  0  0  0  0  0  0  0  0
  1  2  1  0  0  0  0
  1  4  1  0  0  0  0
  3 22  1  0  0  0  0
  3 17  1  0  0  0  0
  4  5  1  0  0  0  0
  4  6  1  0  0  0  0
  7  4  1  0  0  0  0
  8 11  1  0  0  0  0
  8  1  1  0  0  0  0
  9  8  1  0  0  0  0
 10  8  1  0  0  0  0
 12 13  1  0  0  0  0
 12  1  1  0  0  0  0
 13 14  1  0  0  0  0
 15 16  1  0  0  0  0
 15 13  2  0  0  0  0
 17 15  1  0  0  0  0
 18 17  2  0  0  0  0
 18 20  1  0  0  0  0
 19 18  1  0  0  0  0
 20 12  2  0  0  0  0
 21 20  1  0  0  0  0
 22 24  1  0  0  0  0
 22 25  1  0  0  0  0
 23 22  1  0  0  0  0
M  END
