1
q = -1.0, confidence = 0.0

 15 15  0  0  0  0  0  0  0  0999 V2000
   -1.2760   -0.0866   -1.0221 O   0  0  0  0  0  1  0  0  0  0  0  0
   -0.6861   -0.8197   -2.0568 C   0  0  0  0  0  0  0  0  0  0  0  0
   -0.9647   -0.3834   -3.0428 H   0  0  0  0  0  0  0  0  0  0  0  0
   -1.0663   -1.8624   -2.0361 H   0  0  0  0  0  0  0  0  0  0  0  0
    0.8249   -0.8521   -1.9444 C   0  0  0  0  0  0  0  0  0  0  0  0
    1.5136   -1.9943   -1.5031 C   0  0  0  0  0  0  0  0  0  0  0  0
    2.9106   -1.9960   -1.3536 C   0  0  0  0  0  0  0  0  0  0  0  0
    3.6377   -0.8330   -1.6537 C   0  0  0  0  0  0  0  0  0  0  0  0
    2.9719    0.3345   -2.0596 C   0  0  0  0  0  0  0  0  0  0  0  0
    1.5798    0.2999   -2.2151 C   0  0  0  0  0  0  0  0  0  0  0  0
    0.8480   -3.1240   -1.2317 F   0  0  0  0  0  0  0  0  0  0  0  0
    3.5550   -3.0865   -0.9276 F   0  0  0  0  0  0  0  0  0  0  0  0
    4.9687   -0.8322   -1.5298 F   0  0  0  0  0  0  0  0  0  0  0  0
    3.6648    1.4532   -2.2901 F   0  0  0  0  0  0  0  0  0  0  0  0
    0.9607    1.4125   -2.6424 F   0  0  0  0  0  0  0  0  0  0  0  0
  2  4  1  0  0  0  0
  2  5  1  0  0  0  0
  2  1  1  0  0  0  0
  3  2  1  0  0  0  0
  5  6  1  0  0  0  0
  6  7  2  0  0  0  0
  6 11  1  0  0  0  0
  7 12  1  0  0  0  0
  8 13  1  0  0  0  0
  8  7  1  0  0  0  0
  9  8  2  0  0  0  0
 10  9  1  0  0  0  0
 10  5  2  0  0  0  0
 14  9  1  0  0  0  0
 15 10  1  0  0  0  0
M  END
