5
q = -1.0, confidence = 0.014

 16 16  0  0  1  0  0  0  0  0999 V2000
   -2.0686   -2.1145   -0.5326 C   0  0  1  0  0  0  0  0  0  0  0  0
   -2.2665   -2.0320   -1.6199 H   0  0  0  0  0  0  0  0  0  0  0  0
   -3.0236   -1.1006    0.1337 C   0  0  0  0  0  0  0  0  0  0  0  0
   -4.1364   -1.4408    0.5137 O   0  5  0  0  0  0  0  0  0  0  0  0
   -2.5483    0.1223    0.2093 O   0  0  0  0  0  0  0  0  0  0  0  0
   -0.6399   -1.6936   -0.3219 N   0  0  0  0  0  0  0  0  0  0  0  0
   -0.1299   -1.8630   -1.2033 H   0  0  0  0  0  0  0  0  0  0  0  0
   -0.1090   -2.5846    0.7395 C   0  0  0  0  0  0  0  0  0  0  0  0
   -0.4555   -2.1907    1.7156 H   0  0  0  0  0  0  0  0  0  0  0  0
    0.9978   -2.5693    0.7261 H   0  0  0  0  0  0  0  0  0  0  0  0
   -0.7575   -3.9392    0.4416 C   0  0  0  0  0  0  0  0  0  0  0  0
   -0.7287   -4.6230    1.3124 H   0  0  0  0  0  0  0  0  0  0  0  0
   -0.2143   -4.4390   -0.3888 H   0  0  0  0  0  0  0  0  0  0  0  0
   -2.1895   -3.5537    0.0154 C   0  0  0  0  0  0  0  0  0  0  0  0
   -2.8942   -3.5438    0.8708 H   0  0  0  0  0  0  0  0  0  0  0  0
   -2.6061   -4.2512   -0.7352 H   0  0  0  0  0  0  0  0  0  0  0  0
  1  2  1  6  0  0  0
  1  6  1  0  0  0  0
  1 14  1  0  0  0  0
  1  3  1  0  0  0  0
  3  5  2  0  0  0  0
  3  4  1  0  0  0  0
  6  8  1  0  0  0  0
  7  6  1  0  0  0  0
  8  9  1  0  0  0  0
 10  8  1  0  0  0  0
 11  8  1  0  0  0  0
 11 12  1  0  0  0  0
 13 11  1  0  0  0  0
 14 11  1  0  0  0  0
 14 15  1  0  0  0  0
 16 14  1  0  0  0  0
M  CHG  1   4  -1
M  END
