1
q = -1.0, confidence = 0.008

 11 11  0  0  1  0  0  0  0  0999 V2000
    1.7936    0.8928    0.3139 O   0  0  0  0  0  1  0  0  0  0  0  0
    2.9715    0.5309    0.1254 C   0  0  1  0  0  3  0  0  0  0  0  0
    4.3556    1.1708    0.3030 C   0  0  0  0  0  0  0  0  0  0  0  0
    4.7797    2.2497    0.6803 O   0  0  0  0  0  0  0  0  0  0  0  0
    4.9228   -0.1010   -0.1948 C   0  0  2  0  0  3  0  0  0  0  0  0
    3.6454   -0.7224   -0.3708 C   0  0  0  0  0  0  0  0  0  0  0  0
    3.2434   -1.8445   -0.7853 O   0  0  0  0  0  0  0  0  0  0  0  0
    6.3079   -0.5589   -0.4202 C   0  0  0  0  0  0  0  0  0  0  0  0
    6.9396    0.2691   -0.8024 H   0  0  0  0  0  0  0  0  0  0  0  0
    6.3466   -1.4194   -1.1164 H   0  0  0  0  0  0  0  0  0  0  0  0
    6.7683   -0.8824    0.5404 H   0  0  0  0  0  0  0  0  0  0  0  0
  2  3  1  0  0  0  0
  2  1  1  1  0  0  0
  3  4  2  0  0  0  0
  5  8  1  1  0  0  0
  5  3  1  0  0  0  0
  6  5  1  0  0  0  0
  6  2  1  0  0  0  0
  7  6  2  0  0  0  0
  8 11  1  0  0  0  0
  9  8  1  0  0  0  0
 10  8  1  0  0  0  0
M  END
