1
q = -1.0, confidence = 0.012

 18 18  0  0  1  0  0  0  0  0999 V2000
    0.0142   -1.5608   -0.1534 O   0  5  0  0  0  0  0  0  0  0  0  0
    1.2191   -3.2401   -0.9589 O   0  0  0  0  0  0  0  0  0  0  0  0
    0.8770    0.0746   -2.1757 O   0  0  0  0  0  0  0  0  0  0  0  0
    1.2372    0.5040   -2.9743 H   0  0  0  0  0  0  0  0  0  0  0  0
    0.9135   -2.0521   -0.9721 C   0  0  0  0  0  0  0  0  0  0  0  0
    1.6489   -1.1029   -1.9442 C   0  0  2  0  0  0  0  0  0  0  0  0
    1.7367   -1.6952   -2.8833 H   0  0  0  0  0  0  0  0  0  0  0  0
    3.0634   -0.7955   -1.4414 C   0  0  0  0  0  0  0  0  0  0  0  0
    3.9109   -1.8312   -0.9931 C   0  0  0  0  0  0  0  0  0  0  0  0
    3.5274   -2.8620   -0.9759 H   0  0  0  0  0  0  0  0  0  0  0  0
    5.2161   -1.5449   -0.5712 C   0  0  0  0  0  0  0  0  0  0  0  0
    5.8651   -2.3630   -0.2238 H   0  0  0  0  0  0  0  0  0  0  0  0
    5.7030   -0.2267   -0.6032 C   0  0  0  0  0  0  0  0  0  0  0  0
    6.7339   -0.0082   -0.2860 H   0  0  0  0  0  0  0  0  0  0  0  0
    4.8688    0.8045   -1.0564 C   0  0  0  0  0  0  0  0  0  0  0  0
    5.2416    1.8400   -1.0933 H   0  0  0  0  0  0  0  0  0  0  0  0
    3.5554    0.5219   -1.4657 C   0  0  0  0  0  0  0  0  0  0  0  0
    2.8997    1.3386   -1.8031 H   0  0  0  0  0  0  0  0  0  0  0  0
  3  6  1  0  0  0  0
  4  3  1  0  0  0  0
  5  2  2  0  0  0  0
  5  1  1  0  0  0  0
  6  7  1  6  0  0  0
  6  8  1  0  0  0  0
  6  5  1  0  0  0  0
  8  9  1  0  0  0  0
  9 10  1  0  0  0  0
  9 11  2  0  0  0  0
 11 12  1  0  0  0  0
 13 11  1  0  0  0  0
 13 14  1  0  0  0  0
 15 13  2  0  0  0  0
 16 15  1  0  0  0  0
 17  8  2  0  0  0  0
 17 15  1  0  0  0  0
 18 17  1  0  0  0  0
M  CHG  1   1  -1
M  END
