1
q = -1.0, confidence = 0.016

 45 47  0  0  0  0  0  0  0  0999 V2000
    1.3680   -2.0627   -1.0271 O   0  0  0  0  0  1  0  0  0  0  0  0
   -0.1955   -2.8339    0.7855 O   0  0  0  0  0  1  0  0  0  0  0  0
    0.2318   -4.2693   -1.2854 O   0  0  0  0  0  1  0  0  0  0  0  0
    0.1483    1.4914   -2.2962 O   0  0  0  0  0  0  0  0  0  0  0  0
   -3.5544    0.6380    0.7817 O   0  0  0  0  0  0  0  0  0  0  0  0
   -0.6288    0.1663    0.1176 P   0  0  0  0  0  0  0  0  0  0  0  0
    0.1117   -2.9322   -0.6700 S   0  0  0  0  0  0  0  0  0  0  0  0
   -1.5676   -0.7288   -1.1985 C   0  0  0  0  0  0  0  0  0  0  0  0
   -1.2311   -2.0619   -1.5215 C   0  0  0  0  0  0  0  0  0  0  0  0
   -1.9093   -2.7532   -2.5360 C   0  0  0  0  0  0  0  0  0  0  0  0
   -1.6036   -3.7880   -2.7488 H   0  0  0  0  0  0  0  0  0  0  0  0
   -2.9341   -2.1153   -3.2479 C   0  0  0  0  0  0  0  0  0  0  0  0
   -3.4692   -2.6574   -4.0425 H   0  0  0  0  0  0  0  0  0  0  0  0
   -3.2670   -0.7836   -2.9511 C   0  0  0  0  0  0  0  0  0  0  0  0
   -4.0645   -0.2741   -3.5132 H   0  0  0  0  0  0  0  0  0  0  0  0
   -2.5862   -0.0962   -1.9366 C   0  0  0  0  0  0  0  0  0  0  0  0
   -2.8454    0.9466   -1.7044 H   0  0  0  0  0  0  0  0  0  0  0  0
   -0.9054    1.9436   -0.2499 C   0  0  0  0  0  0  0  0  0  0  0  0
   -0.3918    2.4336   -1.4832 C   0  0  0  0  0  0  0  0  0  0  0  0
   -0.4404    3.8088   -1.7784 C   0  0  0  0  0  0  0  0  0  0  0  0
   -0.0527    4.1890   -2.7329 H   0  0  0  0  0  0  0  0  0  0  0  0
   -0.9810    4.7002   -0.8365 C   0  0  0  0  0  0  0  0  0  0  0  0
   -1.0142    5.7748   -1.0722 H   0  0  0  0  0  0  0  0  0  0  0  0
   -1.4629    4.2342    0.3943 C   0  0  0  0  0  0  0  0  0  0  0  0
   -1.8707    4.9374    1.1349 H   0  0  0  0  0  0  0  0  0  0  0  0
   -1.4210    2.8595    0.6811 C   0  0  0  0  0  0  0  0  0  0  0  0
   -1.7844    2.4894    1.6507 H   0  0  0  0  0  0  0  0  0  0  0  0
    0.8131    1.8807   -3.4837 C   0  0  0  0  0  0  0  0  0  0  0  0
    0.1147    2.3540   -4.2085 H   0  0  0  0  0  0  0  0  0  0  0  0
    1.2204    0.9518   -3.9225 H   0  0  0  0  0  0  0  0  0  0  0  0
    1.6488    2.5833   -3.2700 H   0  0  0  0  0  0  0  0  0  0  0  0
   -1.5185   -0.1507    1.6905 C   0  0  0  0  0  0  0  0  0  0  0  0
   -2.9070    0.1075    1.8519 C   0  0  0  0  0  0  0  0  0  0  0  0
   -3.5362   -0.1788    3.0804 C   0  0  0  0  0  0  0  0  0  0  0  0
   -4.6073    0.0202    3.2166 H   0  0  0  0  0  0  0  0  0  0  0  0
   -2.7929   -0.7294    4.1354 C   0  0  0  0  0  0  0  0  0  0  0  0
   -3.2989   -0.9514    5.0875 H   0  0  0  0  0  0  0  0  0  0  0  0
   -1.4280   -1.0066    3.9807 C   0  0  0  0  0  0  0  0  0  0  0  0
   -0.8520   -1.4586    4.8007 H   0  0  0  0  0  0  0  0  0  0  0  0
   -0.8037   -0.7230    2.7585 C   0  0  0  0  0  0  0  0  0  0  0  0
    0.2539   -0.9756    2.5961 H   0  0  0  0  0  0  0  0  0  0  0  0
   -4.9487    0.8660    0.8560 C   0  0  0  0  0  0  0  0  0  0  0  0
   -5.5079   -0.0715    1.0681 H   0  0  0  0  0  0  0  0  0  0  0  0
   -5.2513    1.2496   -0.1359 H   0  0  0  0  0  0  0  0  0  0  0  0
   -5.2029    1.6230    1.6310 H   0  0  0  0  0  0  0  0  0  0  0  0
  1  7  1  0  0  0  0
  3  7  1  0  0  0  0
  4 19  1  0  0  0  0
  5 42  1  0  0  0  0
  5 33  1  0  0  0  0
  6 32  1  0  0  0  0
  7  2  1  0  0  0  0
  8  6  1  0  0  0  0
  9  8  1  0  0  0  0
  9  7  1  0  0  0  0
 10  9  2  0  0  0  0
 11 10  1  0  0  0  0
 12 14  2  0  0  0  0
 12 10  1  0  0  0  0
 13 12  1  0  0  0  0
 14 16  1  0  0  0  0
 15 14  1  0  0  0  0
 16 17  1  0  0  0  0
 16  8  2  0  0  0  0
 18  6  1  0  0  0  0
 18 26  1  0  0  0  0
 19 18  2  0  0  0  0
 20 19  1  0  0  0  0
 20 22  2  0  0  0  0
 21 20  1  0  0  0  0
 22 24  1  0  0  0  0
 23 22  1  0  0  0  0
 24 26  2  0  0  0  0
 24 25  1  0  0  0  0
 26 27  1  0  0  0  0
 28 31  1  0  0  0  0
 28  4  1  0  0  0  0
 29 28  1  0  0  0  0
 30 28  1  0  0  0  0
 32 33  2  0  0  0  0
 32 40  1  0  0  0  0
 33 34  1  0  0  0  0
 34 35  1  0  0  0  0
 34 36  2  0  0  0  0
 36 37  1  0  0  0  0
 38 36  1  0  0  0  0
 38 39  1  0  0  0  0
 40 38  2  0  0  0  0
 41 40  1  0  0  0  0
 42 43  1  0  0  0  0
 42 45  1  0  0  0  0
 44 42  1  0  0  0  0
M  END
