6
q = -1.0, confidence = 0.002

 11 11  0  0  0  0  0  0  0  0999 V2000
   -4.1438   -0.6456    0.6732 N   0  0  0  0  0  0  0  0  0  0  0  0
   -2.7431    1.9395   -1.4346 F   0  0  0  0  0  0  0  0  0  0  0  0
   -5.0682    1.2695   -0.1414 F   0  0  0  0  0  0  0  0  0  0  0  0
   -3.2374   -2.5457    1.5405 F   0  0  0  0  0  0  0  0  0  0  0  0
   -0.8503   -2.0919    0.3226 F   0  0  0  0  0  0  0  0  0  0  0  0
   -0.6053    0.2588   -1.3185 O   0  0  0  0  0  0  0  0  0  0  0  0
   -1.6901   -0.0671   -0.6763 C   0  0  0  0  0  0  0  0  0  0  0  0
   -2.8372    0.7885   -0.7403 C   0  0  0  0  0  0  0  0  0  0  0  0
   -4.0095    0.4463   -0.0636 C   0  0  0  0  0  0  0  0  0  0  0  0
   -3.0996   -1.4488    0.7750 C   0  0  0  0  0  0  0  0  0  0  0  0
   -1.8734   -1.2259    0.1418 C   0  0  0  0  0  0  0  0  0  0  0  0
  1 10  1  0  0  0  0
  2  8  1  0  0  0  0
  3  9  1  0  0  0  0
  6  7  1  0  0  0  0
  7 11  1  0  0  0  0
  8  7  2  0  0  0  0
  8  9  1  0  0  0  0
  9  1  2  0  0  0  0
 10  4  1  0  0  0  0
 11  5  1  0  0  0  0
 11 10  2  0  0  0  0
M  END
