2
q = nan, confidence = 0.0

 37 36  0  0  0  0  0  0  0  0999 V2000
   -1.5408   -1.8440   -1.1309 Cl  0  0  0  0  0  0  0  0  0  0  0  0
    0.4713   -1.2384    2.0369 O   0  0  0  0  0  1  0  0  0  0  0  0
    1.8020   -1.7536   -0.1869 O   0  0  0  0  0  0  0  0  0  0  0  0
    1.2534    0.1032   -2.0484 O   0  0  0  0  0  0  0  0  0  0  0  0
   -0.8547    1.8070   -1.3183 O   0  0  0  0  0  0  0  0  0  0  0  0
   -2.0532    0.6199    0.7777 O   0  0  0  0  0  0  0  0  0  0  0  0
   -2.4621   -2.4226    0.2482 O   0  0  0  0  0  0  0  0  0  0  0  0
    1.0049   -2.5240    1.9163 C   0  0  0  0  0  0  0  0  0  0  0  0
    2.2214   -2.5023    0.9867 C   0  0  0  0  0  0  0  0  0  0  0  0
    2.7341   -1.6133   -1.2577 C   0  0  0  0  0  0  0  0  0  0  0  0
    1.9560   -1.0884   -2.4497 C   0  0  0  0  0  0  0  0  0  0  0  0
    0.4183    0.6674   -3.0687 C   0  0  0  0  0  0  0  0  0  0  0  0
   -0.1443    1.9826   -2.5550 C   0  0  0  0  0  0  0  0  0  0  0  0
   -2.2794    1.6681   -1.3861 C   0  0  0  0  0  0  0  0  0  0  0  0
   -2.7926    1.6126    0.0444 C   0  0  0  0  0  0  0  0  0  0  0  0
   -2.7830   -0.3409    1.5688 C   0  0  0  0  0  0  0  0  0  0  0  0
   -3.3915   -1.4634    0.7409 C   0  0  0  0  0  0  0  0  0  0  0  0
    1.3368   -2.9391    2.8983 H   0  0  0  0  0  0  0  0  0  0  0  0
    0.2512   -3.2403    1.5042 H   0  0  0  0  0  0  0  0  0  0  0  0
    2.5411   -3.5219    0.6788 H   0  0  0  0  0  0  0  0  0  0  0  0
    3.0829   -1.9752    1.4568 H   0  0  0  0  0  0  0  0  0  0  0  0
    3.5600   -0.9200   -0.9724 H   0  0  0  0  0  0  0  0  0  0  0  0
    3.1845   -2.5947   -1.5240 H   0  0  0  0  0  0  0  0  0  0  0  0
    1.2194   -1.8501   -2.7936 H   0  0  0  0  0  0  0  0  0  0  0  0
    2.6480   -0.8572   -3.2888 H   0  0  0  0  0  0  0  0  0  0  0  0
    1.0129    0.8589   -3.9900 H   0  0  0  0  0  0  0  0  0  0  0  0
   -0.3931   -0.0528   -3.3315 H   0  0  0  0  0  0  0  0  0  0  0  0
    0.6839    2.6884   -2.3379 H   0  0  0  0  0  0  0  0  0  0  0  0
   -0.7994    2.4425   -3.3243 H   0  0  0  0  0  0  0  0  0  0  0  0
   -2.7279    2.5441   -1.9052 H   0  0  0  0  0  0  0  0  0  0  0  0
   -2.5553    0.7431   -1.9396 H   0  0  0  0  0  0  0  0  0  0  0  0
   -3.8768    1.3767    0.0379 H   0  0  0  0  0  0  0  0  0  0  0  0
   -2.6515    2.5932    0.5484 H   0  0  0  0  0  0  0  0  0  0  0  0
   -2.0314   -0.7647    2.2676 H   0  0  0  0  0  0  0  0  0  0  0  0
   -3.5736    0.1766    2.1549 H   0  0  0  0  0  0  0  0  0  0  0  0
   -4.0589   -1.0931   -0.0707 H   0  0  0  0  0  0  0  0  0  0  0  0
   -4.0132   -2.0946    1.4160 H   0  0  0  0  0  0  0  0  0  0  0  0
  1  7  1  0  0  0  0
  3  9  1  0  0  0  0
  6 16  1  0  0  0  0
  7 17  1  0  0  0  0
  8  2  1  0  0  0  0
  8 18  1  0  0  0  0
  9 21  1  0  0  0  0
  9  8  1  0  0  0  0
 10 22  1  0  0  0  0
 10  3  1  0  0  0  0
 11  4  1  0  0  0  0
 11 10  1  0  0  0  0
 12 13  1  0  0  0  0
 12  4  1  0  0  0  0
 13 28  1  0  0  0  0
 13  5  1  0  0  0  0
 14  5  1  0  0  0  0
 14 15  1  0  0  0  0
 15 33  1  0  0  0  0
 15  6  1  0  0  0  0
 16 35  1  0  0  0  0
 16 34  1  0  0  0  0
 17 37  1  0  0  0  0
 17 16  1  0  0  0  0
 19  8  1  0  0  0  0
 20  9  1  0  0  0  0
 23 10  1  0  0  0  0
 24 11  1  0  0  0  0
 25 11  1  0  0  0  0
 26 12  1  0  0  0  0
 27 12  1  0  0  0  0
 29 13  1  0  0  0  0
 30 14  1  0  0  0  0
 31 14  1  0  0  0  0
 32 15  1  0  0  0  0
 36 17  1  0  0  0  0
M  END
