3
q = -1.0, confidence = 0.036

 16 16  0  0  0  0  0  0  0  0999 V2000
   -6.6400   -1.4883   -1.9627 Cl  0  0  0  0  0  0  0  0  0  0  0  0
   -2.6985   -1.4332    1.8381 S   0  0  0  0  0  0  0  0  0  0  0  0
   -1.5640   -0.4062    1.9516 O   0  0  0  0  0  1  0  0  0  0  0  0
   -2.3359   -2.5480    0.8935 O   0  0  0  0  0  1  0  0  0  0  0  0
   -3.2408   -1.8188    3.1558 O   0  0  0  0  0  1  0  0  0  0  0  0
   -3.7684    1.4003    2.3358 O   0  0  0  0  0  0  0  0  0  0  0  0
   -4.1845    2.2697    2.4834 H   0  0  0  0  0  0  0  0  0  0  0  0
   -4.0463   -0.5512    0.9866 C   0  0  0  0  0  0  0  0  0  0  0  0
   -4.4598    0.7470    1.3741 C   0  0  0  0  0  0  0  0  0  0  0  0
   -5.5615    1.3294    0.7126 C   0  0  0  0  0  0  0  0  0  0  0  0
   -5.8902    2.3400    1.0074 H   0  0  0  0  0  0  0  0  0  0  0  0
   -6.2456    0.6480   -0.3030 C   0  0  0  0  0  0  0  0  0  0  0  0
   -7.1027    1.1114   -0.8113 H   0  0  0  0  0  0  0  0  0  0  0  0
   -5.8229   -0.6393   -0.6657 C   0  0  0  0  0  0  0  0  0  0  0  0
   -4.7370   -1.2416   -0.0171 C   0  0  0  0  0  0  0  0  0  0  0  0
   -4.3896   -2.2485   -0.2867 H   0  0  0  0  0  0  0  0  0  0  0  0
  1 14  1  0  0  0  0
  2  3  1  0  0  0  0
  2  5  1  0  0  0  0
  4  2  1  0  0  0  0
  6  7  1  0  0  0  0
  8  9  1  0  0  0  0
  8  2  1  0  0  0  0
  9  6  1  0  0  0  0
 10 11  1  0  0  0  0
 10  9  2  0  0  0  0
 12 10  1  0  0  0  0
 13 12  1  0  0  0  0
 14 12  2  0  0  0  0
 14 15  1  0  0  0  0
 15  8  2  0  0  0  0
 16 15  1  0  0  0  0
M  END
