1
q = -1.0, confidence = 0.0

 19 20  0  0  0  0  0  0  0  0999 V2000
    0.0614   -0.0598   -1.4364 O   0  5  0  0  0  0  0  0  0  0  0  0
    0.5934   -2.6892   -0.7735 O   0  0  0  0  0  0  0  0  0  0  0  0
   -0.2831   -2.2482   -0.9354 H   0  0  0  0  0  0  0  0  0  0  0  0
    1.2997   -0.3842   -1.0332 C   0  0  0  0  0  0  0  0  0  0  0  0
    1.5597   -1.7571   -0.6617 C   0  0  0  0  0  0  0  0  0  0  0  0
    2.8230   -2.1033   -0.1944 C   0  0  0  0  0  0  0  0  0  0  0  0
    3.0047   -3.1495    0.0932 H   0  0  0  0  0  0  0  0  0  0  0  0
    3.8623   -1.1379   -0.0723 C   0  0  0  0  0  0  0  0  0  0  0  0
    5.1582   -1.4711    0.4215 C   0  0  0  0  0  0  0  0  0  0  0  0
    5.3608   -2.5152    0.7073 H   0  0  0  0  0  0  0  0  0  0  0  0
    6.1484   -0.5057    0.5422 C   0  0  0  0  0  0  0  0  0  0  0  0
    7.1421   -0.7837    0.9253 H   0  0  0  0  0  0  0  0  0  0  0  0
    5.8883    0.8417    0.1723 C   0  0  0  0  0  0  0  0  0  0  0  0
    6.6810    1.5988    0.2703 H   0  0  0  0  0  0  0  0  0  0  0  0
    4.6392    1.2000   -0.3145 C   0  0  0  0  0  0  0  0  0  0  0  0
    4.4305    2.2415   -0.6060 H   0  0  0  0  0  0  0  0  0  0  0  0
    3.5999    0.2333   -0.4505 C   0  0  0  0  0  0  0  0  0  0  0  0
    2.3047    0.5727   -0.9292 C   0  0  0  0  0  0  0  0  0  0  0  0
    2.0720    1.6087   -1.2148 H   0  0  0  0  0  0  0  0  0  0  0  0
  1  4  1  0  0  0  0
  2  5  1  0  0  0  0
  3  2  1  0  0  0  0
  4 18  2  0  0  0  0
  4  5  1  0  0  0  0
  5  6  2  0  0  0  0
  6  8  1  0  0  0  0
  6  7  1  0  0  0  0
  8  9  1  0  0  0  0
  9 11  2  0  0  0  0
  9 10  1  0  0  0  0
 11 12  1  0  0  0  0
 13 14  1  0  0  0  0
 13 11  1  0  0  0  0
 15 13  2  0  0  0  0
 16 15  1  0  0  0  0
 17 15  1  0  0  0  0
 17  8  2  0  0  0  0
 18 17  1  0  0  0  0
 19 18  1  0  0  0  0
M  CHG  1   1  -1
M  END
