2
q = -1.0, confidence = 0.0

 14 14  0  0  1  0  0  0  0  0999 V2000
   -2.0729    1.7124   -1.9344 S   0  0  0  0  0  1  0  0  0  0  0  0
   -1.9398   -0.8945   -1.5984 O   0  0  0  0  0  1  0  0  0  0  0  0
   -2.6959    0.1244   -1.6231 C   0  0  1  0  0  3  0  0  0  0  0  0
   -4.1377   -0.0702   -1.2609 C   0  0  0  0  0  0  0  0  0  0  0  0
   -4.6023   -1.3834   -1.0268 C   0  0  0  0  0  0  0  0  0  0  0  0
   -3.9003   -2.2171   -1.1741 H   0  0  0  0  0  0  0  0  0  0  0  0
   -5.9200   -1.6045   -0.6081 C   0  0  0  0  0  0  0  0  0  0  0  0
   -6.2761   -2.6314   -0.4324 H   0  0  0  0  0  0  0  0  0  0  0  0
   -6.7878   -0.5159   -0.4127 C   0  0  0  0  0  0  0  0  0  0  0  0
   -7.8231   -0.6886   -0.0801 H   0  0  0  0  0  0  0  0  0  0  0  0
   -6.3349    0.7929   -0.6522 C   0  0  0  0  0  0  0  0  0  0  0  0
   -7.0147    1.6463   -0.5067 H   0  0  0  0  0  0  0  0  0  0  0  0
   -5.0193    1.0150   -1.0795 C   0  0  0  0  0  0  0  0  0  0  0  0
   -4.6406    2.0311   -1.2682 H   0  0  0  0  0  0  0  0  0  0  0  0
  3  1  1  1  0  0  0
  3  2  1  0  0  0  0
  3  4  1  0  0  0  0
  4 13  2  0  0  0  0
  4  5  1  0  0  0  0
  5  7  2  0  0  0  0
  6  5  1  0  0  0  0
  7  8  1  0  0  0  0
  7  9  1  0  0  0  0
  9 10  1  0  0  0  0
 11 12  1  0  0  0  0
 11  9  2  0  0  0  0
 13 11  1  0  0  0  0
 14 13  1  0  0  0  0
M  END
