3
q = 0.0, confidence = 0.992

 36 37  0  0  0  0  0  0  0  0999 V2000
    3.1122   -0.5810   -1.7083 N   0  0  0  0  0  4  0  0  0  0  0  0
    2.2324   -1.1123   -1.4516 H   0  0  0  0  0  0  0  0  0  0  0  0
    0.6176   -0.9548   -1.4304 O   0  5  0  0  0  0  0  0  0  0  0  0
   -2.3216    2.8296   -1.5577 O   0  0  0  0  0  0  0  0  0  0  0  0
    4.0297    1.5648   -2.4162 C   0  0  0  0  0  0  0  0  0  0  0  0
    4.6041    1.8974   -1.5269 H   0  0  0  0  0  0  0  0  0  0  0  0
    3.6990    2.4553   -2.9750 H   0  0  0  0  0  0  0  0  0  0  0  0
    4.7348    0.9987   -3.0543 H   0  0  0  0  0  0  0  0  0  0  0  0
    2.8739    0.6950   -2.0074 C   0  0  0  0  0  0  0  0  0  0  0  0
    1.5319    1.2046   -1.9120 C   0  0  0  0  0  0  0  0  0  0  0  0
    0.4131    0.3147   -1.6147 C   0  0  0  0  0  0  0  0  0  0  0  0
   -0.9000    0.8583   -1.5332 C   0  0  0  0  0  0  0  0  0  0  0  0
   -1.7076    0.1454   -1.3226 H   0  0  0  0  0  0  0  0  0  0  0  0
   -1.1119    2.2327   -1.6536 C   0  0  0  0  0  0  0  0  0  0  0  0
   -0.0166    3.1162   -1.8952 C   0  0  0  0  0  0  0  0  0  0  0  0
   -0.2199    4.1927   -1.9701 H   0  0  0  0  0  0  0  0  0  0  0  0
    1.2557    2.6014   -2.0369 C   0  0  0  0  0  0  0  0  0  0  0  0
    2.0820    3.3025   -2.2191 H   0  0  0  0  0  0  0  0  0  0  0  0
   -3.4672    1.9961   -1.4554 C   0  0  0  0  0  0  0  0  0  0  0  0
   -3.5680    1.3342   -2.3413 H   0  0  0  0  0  0  0  0  0  0  0  0
   -4.3444    2.6657   -1.3978 H   0  0  0  0  0  0  0  0  0  0  0  0
   -3.4330    1.3529   -0.5524 H   0  0  0  0  0  0  0  0  0  0  0  0
    4.4026   -1.2594   -1.6484 C   0  0  0  0  0  0  0  0  0  0  0  0
    4.9601   -1.1117   -2.5978 H   0  0  0  0  0  0  0  0  0  0  0  0
    4.1609   -2.3362   -1.5543 H   0  0  0  0  0  0  0  0  0  0  0  0
    5.2613   -0.8263   -0.4696 C   0  0  0  0  0  0  0  0  0  0  0  0
    4.8541   -1.1391    0.8445 C   0  0  0  0  0  0  0  0  0  0  0  0
    3.9295   -1.7241    0.9951 H   0  0  0  0  0  0  0  0  0  0  0  0
    5.6288   -0.7260    1.9382 C   0  0  0  0  0  0  0  0  0  0  0  0
    5.3071   -0.9850    2.9588 H   0  0  0  0  0  0  0  0  0  0  0  0
    6.8128    0.0040    1.7374 C   0  0  0  0  0  0  0  0  0  0  0  0
    7.4179    0.3261    2.5986 H   0  0  0  0  0  0  0  0  0  0  0  0
    7.2285    0.3085    0.4321 C   0  0  0  0  0  0  0  0  0  0  0  0
    8.1612    0.8685    0.2645 H   0  0  0  0  0  0  0  0  0  0  0  0
    6.4557   -0.1072   -0.6644 C   0  0  0  0  0  0  0  0  0  0  0  0
    6.7903    0.1267   -1.6880 H   0  0  0  0  0  0  0  0  0  0  0  0
  1 23  1  0  0  0  0
  1  2  1  0  0  0  0
  4 19  1  0  0  0  0
  5  9  1  0  0  0  0
  5  6  1  0  0  0  0
  7  5  1  0  0  0  0
  8  5  1  0  0  0  0
  9 10  1  0  0  0  0
  9  1  2  0  0  0  0
 10 11  1  0  0  0  0
 11 12  2  0  0  0  0
 11  3  1  0  0  0  0
 12 13  1  0  0  0  0
 14  4  1  0  0  0  0
 14 12  1  0  0  0  0
 15 14  2  0  0  0  0
 16 15  1  0  0  0  0
 17 10  2  0  0  0  0
 17 15  1  0  0  0  0
 18 17  1  0  0  0  0
 19 21  1  0  0  0  0
 19 22  1  0  0  0  0
 20 19  1  0  0  0  0
 23 25  1  0  0  0  0
 23 26  1  0  0  0  0
 24 23  1  0  0  0  0
 26 27  1  0  0  0  0
 27 28  1  0  0  0  0
 27 29  2  0  0  0  0
 29 30  1  0  0  0  0
 31 29  1  0  0  0  0
 31 32  1  0  0  0  0
 33 31  2  0  0  0  0
 34 33  1  0  0  0  0
 35 26  2  0  0  0  0
 35 33  1  0  0  0  0
 36 35  1  0  0  0  0
M  CHG  1   3  -1
M  END
