1
q = -1.0, confidence = 0.0

 22 23  0  0  0  0  0  0  0  0999 V2000
    0.3608    1.0787   -0.1299 O   0  5  0  0  0  0  0  0  0  0  0  0
   -0.2689    2.2540   -0.1999 C   0  0  0  0  0  0  0  0  0  0  0  0
    0.3418    3.4707   -0.3008 C   0  0  0  0  0  0  0  0  0  0  0  0
    1.4353    3.5534   -0.3278 H   0  0  0  0  0  0  0  0  0  0  0  0
   -0.2357    4.4003   -0.3688 H   0  0  0  0  0  0  0  0  0  0  0  0
   -1.7595    2.1073   -0.1639 C   0  0  0  0  0  0  0  0  0  0  0  0
   -2.6465    3.2306   -0.1344 C   0  0  0  0  0  0  0  0  0  0  0  0
   -2.2318    4.2483   -0.1344 H   0  0  0  0  0  0  0  0  0  0  0  0
   -4.0189    3.0633   -0.0950 C   0  0  0  0  0  0  0  0  0  0  0  0
   -4.6808    3.9435   -0.0695 H   0  0  0  0  0  0  0  0  0  0  0  0
   -4.6079    1.7629   -0.0817 C   0  0  0  0  0  0  0  0  0  0  0  0
   -6.0152    1.5507   -0.0394 C   0  0  0  0  0  0  0  0  0  0  0  0
   -6.6823    2.4271   -0.0175 H   0  0  0  0  0  0  0  0  0  0  0  0
   -6.5425    0.2657   -0.0263 C   0  0  0  0  0  0  0  0  0  0  0  0
   -7.6327    0.1169    0.0059 H   0  0  0  0  0  0  0  0  0  0  0  0
   -5.6774   -0.8614   -0.0551 C   0  0  0  0  0  0  0  0  0  0  0  0
   -6.1050   -1.8760   -0.0451 H   0  0  0  0  0  0  0  0  0  0  0  0
   -4.3011   -0.6864   -0.0963 C   0  0  0  0  0  0  0  0  0  0  0  0
   -3.6245   -1.5553   -0.1187 H   0  0  0  0  0  0  0  0  0  0  0  0
   -3.7281    0.6205   -0.1104 C   0  0  0  0  0  0  0  0  0  0  0  0
   -2.3222    0.8303   -0.1503 C   0  0  0  0  0  0  0  0  0  0  0  0
   -1.6476   -0.0354   -0.1709 H   0  0  0  0  0  0  0  0  0  0  0  0
  2  6  1  0  0  0  0
  2  1  1  0  0  0  0
  3  2  2  0  0  0  0
  4  3  1  0  0  0  0
  5  3  1  0  0  0  0
  6 21  2  0  0  0  0
  6  7  1  0  0  0  0
  7  8  1  0  0  0  0
  7  9  2  0  0  0  0
  9 11  1  0  0  0  0
  9 10  1  0  0  0  0
 11 12  1  0  0  0  0
 12 14  2  0  0  0  0
 12 13  1  0  0  0  0
 14 15  1  0  0  0  0
 16 17  1  0  0  0  0
 16 14  1  0  0  0  0
 18 16  2  0  0  0  0
 19 18  1  0  0  0  0
 20 18  1  0  0  0  0
 20 11  2  0  0  0  0
 21 20  1  0  0  0  0
 22 21  1  0  0  0  0
M  CHG  1   1  -1
M  END
