1
q = -1.0, confidence = 0.0

 17 17  0  0  0  0  0  0  0  0999 V2000
    0.0708   -0.3724   -1.7796 O   0  5  0  0  0  0  0  0  0  0  0  0
    1.0629   -0.8496   -1.0194 N   0  0  0  0  0  0  0  0  0  0  0  0
    3.8431   -3.0831   -1.0336 N   0  0  0  0  0  0  0  0  0  0  0  0
    1.8387   -1.8132   -1.4314 C   0  0  0  0  0  0  0  0  0  0  0  0
    1.6659   -2.4092   -2.7928 C   0  0  0  0  0  0  0  0  0  0  0  0
    1.5802   -1.6062   -3.5524 H   0  0  0  0  0  0  0  0  0  0  0  0
    0.7180   -2.9864   -2.8397 H   0  0  0  0  0  0  0  0  0  0  0  0
    2.5175   -3.0743   -3.0178 H   0  0  0  0  0  0  0  0  0  0  0  0
    2.8924   -2.2832   -0.5027 C   0  0  0  0  0  0  0  0  0  0  0  0
    2.8915   -1.9154    0.8670 C   0  0  0  0  0  0  0  0  0  0  0  0
    2.0810   -1.2942    1.2734 H   0  0  0  0  0  0  0  0  0  0  0  0
    3.9327   -2.3707    1.6796 C   0  0  0  0  0  0  0  0  0  0  0  0
    3.9563   -2.0998    2.7466 H   0  0  0  0  0  0  0  0  0  0  0  0
    4.9333   -3.1857    1.1224 C   0  0  0  0  0  0  0  0  0  0  0  0
    5.7677   -3.5686    1.7288 H   0  0  0  0  0  0  0  0  0  0  0  0
    4.8299   -3.5160   -0.2377 C   0  0  0  0  0  0  0  0  0  0  0  0
    5.5865   -4.1684   -0.7104 H   0  0  0  0  0  0  0  0  0  0  0  0
  1  2  1  0  0  0  0
  3  9  2  0  0  0  0
  3 16  1  0  0  0  0
  4  2  2  0  0  0  0
  4  9  1  0  0  0  0
  5  4  1  0  0  0  0
  6  5  1  0  0  0  0
  7  5  1  0  0  0  0
  8  5  1  0  0  0  0
  9 10  1  0  0  0  0
 10 11  1  0  0  0  0
 10 12  2  0  0  0  0
 12 13  1  0  0  0  0
 14 12  1  0  0  0  0
 14 15  1  0  0  0  0
 16 14  2  0  0  0  0
 17 16  1  0  0  0  0
M  CHG  1   1  -1
M  END
