1
q = -1.0, confidence = 0.028

 54 56  0  0  0  0  0  0  0  0999 V2000
    0.4551   -1.1367    0.4639 O   0  5  0  0  0  0  0  0  0  0  0  0
   -0.8241   -0.7043    0.3694 C   0  0  0  0  0  0  0  0  0  0  0  0
   -1.0694    0.6948    0.4980 C   0  0  0  0  0  0  0  0  0  0  0  0
   -2.3681    1.1839    0.2846 C   0  0  0  0  0  0  0  0  0  0  0  0
   -3.4449    0.3285   -0.0059 C   0  0  0  0  0  0  0  0  0  0  0  0
   -3.1779   -1.0524   -0.0411 C   0  0  0  0  0  0  0  0  0  0  0  0
   -1.8987   -1.6137    0.1481 C   0  0  0  0  0  0  0  0  0  0  0  0
    0.0094    1.6305    0.8768 C   0  0  0  0  0  0  0  0  0  0  0  0
    0.7254    1.6068    2.0501 C   0  0  0  0  0  0  0  0  0  0  0  0
    1.7345    2.7321    2.0573 C   0  0  0  0  0  0  0  0  0  0  0  0
    1.4982    3.4403    0.7478 C   0  0  0  0  0  0  0  0  0  0  0  0
    2.1345    4.5421    0.1720 C   0  0  0  0  0  0  0  0  0  0  0  0
    1.7077    4.9935   -1.0940 C   0  0  0  0  0  0  0  0  0  0  0  0
    0.6560    4.3458   -1.7664 C   0  0  0  0  0  0  0  0  0  0  0  0
    0.0139    3.2326   -1.1955 C   0  0  0  0  0  0  0  0  0  0  0  0
    0.4433    2.7774    0.0627 C   0  0  0  0  0  0  0  0  0  0  0  0
   -4.8470    0.9145   -0.2446 C   0  0  0  0  0  0  0  0  0  0  0  0
   -4.7856    1.8915   -1.4412 C   0  0  0  0  0  0  0  0  0  0  0  0
   -5.3030    1.6767    1.0206 C   0  0  0  0  0  0  0  0  0  0  0  0
   -5.8875   -0.1741   -0.5584 C   0  0  0  0  0  0  0  0  0  0  0  0
   -1.6998   -3.1434    0.1177 C   0  0  0  0  0  0  0  0  0  0  0  0
   -3.0469   -3.8911    0.0706 C   0  0  0  0  0  0  0  0  0  0  0  0
   -0.9014   -3.5442   -1.1431 C   0  0  0  0  0  0  0  0  0  0  0  0
   -0.9571   -3.6083    1.3927 C   0  0  0  0  0  0  0  0  0  0  0  0
    0.5659    0.6515    3.1837 C   0  0  0  0  0  0  0  0  0  0  0  0
   -2.5248    2.2692    0.3778 H   0  0  0  0  0  0  0  0  0  0  0  0
   -4.0109   -1.7374   -0.2281 H   0  0  0  0  0  0  0  0  0  0  0  0
    2.9574    5.0538    0.6955 H   0  0  0  0  0  0  0  0  0  0  0  0
    2.2002    5.8611   -1.5585 H   0  0  0  0  0  0  0  0  0  0  0  0
    0.3333    4.7135   -2.7524 H   0  0  0  0  0  0  0  0  0  0  0  0
   -0.8088    2.7260   -1.7240 H   0  0  0  0  0  0  0  0  0  0  0  0
   -4.0740    2.7213   -1.2586 H   0  0  0  0  0  0  0  0  0  0  0  0
   -5.7836    2.3390   -1.6292 H   0  0  0  0  0  0  0  0  0  0  0  0
   -4.4640    1.3669   -2.3637 H   0  0  0  0  0  0  0  0  0  0  0  0
   -5.3517    0.9971    1.8952 H   0  0  0  0  0  0  0  0  0  0  0  0
   -6.3109    2.1152    0.8672 H   0  0  0  0  0  0  0  0  0  0  0  0
   -4.6111    2.5040    1.2744 H   0  0  0  0  0  0  0  0  0  0  0  0
   -5.6222   -0.7481   -1.4692 H   0  0  0  0  0  0  0  0  0  0  0  0
   -6.8775    0.2925   -0.7345 H   0  0  0  0  0  0  0  0  0  0  0  0
   -6.0022   -0.8905    0.2799 H   0  0  0  0  0  0  0  0  0  0  0  0
   -2.8560   -4.9823    0.0992 H   0  0  0  0  0  0  0  0  0  0  0  0
   -3.6147   -3.6825   -0.8585 H   0  0  0  0  0  0  0  0  0  0  0  0
   -3.6920   -3.6408    0.9369 H   0  0  0  0  0  0  0  0  0  0  0  0
    0.1205   -3.1286   -1.1285 H   0  0  0  0  0  0  0  0  0  0  0  0
   -1.4194   -3.1999   -2.0617 H   0  0  0  0  0  0  0  0  0  0  0  0
   -0.8010   -4.6479   -1.1967 H   0  0  0  0  0  0  0  0  0  0  0  0
   -1.5251   -3.3208    2.3010 H   0  0  0  0  0  0  0  0  0  0  0  0
    0.0589   -3.1813    1.4635 H   0  0  0  0  0  0  0  0  0  0  0  0
   -0.8572   -4.7130    1.3873 H   0  0  0  0  0  0  0  0  0  0  0  0
    0.5138    1.1891    4.1541 H   0  0  0  0  0  0  0  0  0  0  0  0
    1.4385   -0.0340    3.2414 H   0  0  0  0  0  0  0  0  0  0  0  0
   -0.3464    0.0349    3.0725 H   0  0  0  0  0  0  0  0  0  0  0  0
    1.6023    3.4031    2.9357 H   0  0  0  0  0  0  0  0  0  0  0  0
    2.7677    2.3234    2.1328 H   0  0  0  0  0  0  0  0  0  0  0  0
  2  1  1  0  0  0  0
  2  3  1  0  0  0  0
  3  8  1  0  0  0  0
  4 26  1  0  0  0  0
  4  3  2  0  0  0  0
  5  4  1  0  0  0  0
  6  5  2  0  0  0  0
  6  7  1  0  0  0  0
  7  2  2  0  0  0  0
  8  9  2  0  0  0  0
  9 10  1  0  0  0  0
  9 25  1  0  0  0  0
 10 54  1  0  0  0  0
 10 53  1  0  0  0  0
 11 10  1  0  0  0  0
 12 28  1  0  0  0  0
 12 11  1  0  0  0  0
 13 12  2  0  0  0  0
 14 15  2  0  0  0  0
 14 13  1  0  0  0  0
 15 16  1  0  0  0  0
 16 11  2  0  0  0  0
 16  8  1  0  0  0  0
 17  5  1  0  0  0  0
 17 19  1  0  0  0  0
 18 32  1  0  0  0  0
 18 17  1  0  0  0  0
 19 37  1  0  0  0  0
 19 35  1  0  0  0  0
 20 17  1  0  0  0  0
 20 40  1  0  0  0  0
 21  7  1  0  0  0  0
 21 24  1  0  0  0  0
 22 41  1  0  0  0  0
 22 21  1  0  0  0  0
 22 43  1  0  0  0  0
 23 44  1  0  0  0  0
 23 21  1  0  0  0  0
 24 48  1  0  0  0  0
 24 47  1  0  0  0  0
 25 51  1  0  0  0  0
 25 50  1  0  0  0  0
 27  6  1  0  0  0  0
 29 13  1  0  0  0  0
 30 14  1  0  0  0  0
 31 15  1  0  0  0  0
 33 18  1  0  0  0  0
 34 18  1  0  0  0  0
 36 19  1  0  0  0  0
 38 20  1  0  0  0  0
 39 20  1  0  0  0  0
 42 22  1  0  0  0  0
 45 23  1  0  0  0  0
 46 23  1  0  0  0  0
 49 24  1  0  0  0  0
 52 25  1  0  0  0  0
M  CHG  1   1  -1
M  END
