1
q = 0.0, confidence = 0.996

 25 26  0  0  0  0  0  0  0  0999 V2000
    2.5416   -1.3280   -0.0964 O   0  0  0  0  0  1  0  0  0  0  0  0
    3.2069   -0.0265    0.4172 P   0  0  0  0  0  4  0  0  0  0  0  0
    2.1941    1.4680    0.2673 C   0  0  0  0  0  0  0  0  0  0  0  0
    1.9101    1.9715   -1.0207 C   0  0  0  0  0  0  0  0  0  0  0  0
    2.3542    1.4965   -1.9093 H   0  0  0  0  0  0  0  0  0  0  0  0
    1.0524    3.0698   -1.1613 C   0  0  0  0  0  0  0  0  0  0  0  0
    0.8212    3.4598   -2.1637 H   0  0  0  0  0  0  0  0  0  0  0  0
    0.4792    3.6654   -0.0240 C   0  0  0  0  0  0  0  0  0  0  0  0
   -0.2093    4.5158   -0.1404 H   0  0  0  0  0  0  0  0  0  0  0  0
    0.7657    3.1673    1.2567 C   0  0  0  0  0  0  0  0  0  0  0  0
    0.3037    3.6219    2.1451 H   0  0  0  0  0  0  0  0  0  0  0  0
    1.6212    2.0659    1.4077 C   0  0  0  0  0  0  0  0  0  0  0  0
    1.8085    1.6404    2.4045 H   0  0  0  0  0  0  0  0  0  0  0  0
    4.7335    0.2485   -0.5196 C   0  0  0  0  0  0  0  0  0  0  0  0
    5.4659    1.4447   -0.3788 C   0  0  0  0  0  0  0  0  0  0  0  0
    5.1059    2.2424    0.2902 H   0  0  0  0  0  0  0  0  0  0  0  0
    6.6513    1.6191   -1.1057 C   0  0  0  0  0  0  0  0  0  0  0  0
    7.2262    2.5513   -1.0000 H   0  0  0  0  0  0  0  0  0  0  0  0
    7.1008    0.6071   -1.9715 C   0  0  0  0  0  0  0  0  0  0  0  0
    8.0308    0.7490   -2.5425 H   0  0  0  0  0  0  0  0  0  0  0  0
    6.3668   -0.5812   -2.1128 C   0  0  0  0  0  0  0  0  0  0  0  0
    6.7189   -1.3704   -2.7939 H   0  0  0  0  0  0  0  0  0  0  0  0
    5.1808   -0.7666   -1.3865 C   0  0  0  0  0  0  0  0  0  0  0  0
    4.5865   -1.6877   -1.4832 H   0  0  0  0  0  0  0  0  0  0  0  0
    3.5534   -0.0635    1.8033 H   0  0  0  0  0  0  0  0  0  0  0  0
  1  2  1  0  0  0  0
  2 25  1  0  0  0  0
  3  2  1  0  0  0  0
  3 12  1  0  0  0  0
  4  3  2  0  0  0  0
  5  4  1  0  0  0  0
  6  4  1  0  0  0  0
  6  8  2  0  0  0  0
  7  6  1  0  0  0  0
  8 10  1  0  0  0  0
  9  8  1  0  0  0  0
 10 12  2  0  0  0  0
 10 11  1  0  0  0  0
 12 13  1  0  0  0  0
 14 15  1  0  0  0  0
 14  2  1  0  0  0  0
 15 16  1  0  0  0  0
 17 18  1  0  0  0  0
 17 15  2  0  0  0  0
 19 17  1  0  0  0  0
 20 19  1  0  0  0  0
 21 19  2  0  0  0  0
 21 23  1  0  0  0  0
 22 21  1  0  0  0  0
 23 14  2  0  0  0  0
 24 23  1  0  0  0  0
M  END
