1
q = -1.0, confidence = 0.0

 20 21  0  0  0  0  0  0  0  0999 V2000
   -0.4074    1.5131   -0.1171 O   0  5  0  0  0  0  0  0  0  0  0  0
   -5.0379    2.0660   -0.7480 O   0  0  0  0  0  0  0  0  0  0  0  0
   -7.2092    2.1223   -1.3005 O   0  0  0  0  0  0  0  0  0  0  0  0
   -1.6319    1.4655    0.4182 C   0  0  0  0  0  0  0  0  0  0  0  0
   -1.8759    1.0198    1.7495 C   0  0  0  0  0  0  0  0  0  0  0  0
   -3.1779    0.9260    2.2309 C   0  0  0  0  0  0  0  0  0  0  0  0
   -4.2961    1.2655    1.4268 C   0  0  0  0  0  0  0  0  0  0  0  0
   -4.0303    1.7509    0.1156 C   0  0  0  0  0  0  0  0  0  0  0  0
   -2.7269    1.8688   -0.3745 C   0  0  0  0  0  0  0  0  0  0  0  0
   -5.6794    1.0904    1.8218 C   0  0  0  0  0  0  0  0  0  0  0  0
   -6.0195    0.4920    3.1554 C   0  0  0  0  0  0  0  0  0  0  0  0
   -6.6666    1.4117    0.9193 C   0  0  0  0  0  0  0  0  0  0  0  0
   -6.3972    1.8869   -0.4249 C   0  0  0  0  0  0  0  0  0  0  0  0
   -1.0178    0.7171    2.3678 H   0  0  0  0  0  0  0  0  0  0  0  0
   -3.3496    0.5492    3.2494 H   0  0  0  0  0  0  0  0  0  0  0  0
   -2.5620    2.1978   -1.4082 H   0  0  0  0  0  0  0  0  0  0  0  0
   -5.5031    1.0153    3.9859 H   0  0  0  0  0  0  0  0  0  0  0  0
   -5.7041   -0.5727    3.1775 H   0  0  0  0  0  0  0  0  0  0  0  0
   -7.1091    0.5174    3.3382 H   0  0  0  0  0  0  0  0  0  0  0  0
   -7.7279    1.2609    1.1597 H   0  0  0  0  0  0  0  0  0  0  0  0
  1  4  1  0  0  0  0
  2 13  1  0  0  0  0
  2  8  1  0  0  0  0
  3 13  2  0  0  0  0
  4  5  1  0  0  0  0
  5  6  2  0  0  0  0
  5 14  1  0  0  0  0
  6 15  1  0  0  0  0
  7 10  1  0  0  0  0
  7  6  1  0  0  0  0
  8  7  2  0  0  0  0
  9  8  1  0  0  0  0
  9  4  2  0  0  0  0
 10 11  1  0  0  0  0
 11 18  1  0  0  0  0
 11 19  1  0  0  0  0
 11 17  1  0  0  0  0
 12 20  1  0  0  0  0
 12 10  2  0  0  0  0
 13 12  1  0  0  0  0
 16  9  1  0  0  0  0
M  CHG  1   1  -1
M  END
