1
q = -1.0, confidence = 0.016

 33 32  0  0  1  0  0  0  0  0999 V2000
    0.3862    0.6341    0.2808 O   0  5  0  0  0  0  0  0  0  0  0  0
    0.9987    2.1578   -1.2700 O   0  0  0  0  0  0  0  0  0  0  0  0
   -3.3161   -0.5496    0.7207 O   0  0  0  0  0  0  0  0  0  0  0  0
   -1.8164   -0.6135   -1.0289 O   0  0  0  0  0  0  0  0  0  0  0  0
   -2.2097    1.2972    0.1927 N   0  0  0  0  0  0  0  0  0  0  0  0
    0.1572    1.6411   -0.5058 C   0  0  0  0  0  0  0  0  0  0  0  0
   -1.2868    2.1859   -0.4869 C   0  0  2  0  0  0  0  0  0  0  0  0
   -1.4067    3.6115    0.1280 C   0  0  0  0  0  0  0  0  0  0  0  0
   -0.4372    4.6254   -0.4889 C   0  0  0  0  0  0  0  0  0  0  0  0
   -2.8482    4.1308    0.0001 C   0  0  0  0  0  0  0  0  0  0  0  0
   -2.4092   -0.0119   -0.1216 C   0  0  0  0  0  0  0  0  0  0  0  0
   -3.8867   -1.8976    0.5033 C   0  0  0  0  0  0  0  0  0  0  0  0
   -4.8913   -2.0214    1.6494 C   0  0  0  0  0  0  0  0  0  0  0  0
   -2.7905   -2.9627    0.6279 C   0  0  0  0  0  0  0  0  0  0  0  0
   -4.5868   -1.9464   -0.8565 C   0  0  0  0  0  0  0  0  0  0  0  0
   -2.7734    1.6679    0.9588 H   0  0  0  0  0  0  0  0  0  0  0  0
   -1.5539    2.2601   -1.5668 H   0  0  0  0  0  0  0  0  0  0  0  0
   -1.1626    3.5058    1.2116 H   0  0  0  0  0  0  0  0  0  0  0  0
   -0.5994    5.6192   -0.0270 H   0  0  0  0  0  0  0  0  0  0  0  0
    0.6227    4.3468   -0.3519 H   0  0  0  0  0  0  0  0  0  0  0  0
   -0.6110    4.7272   -1.5794 H   0  0  0  0  0  0  0  0  0  0  0  0
   -3.1288    4.2353   -1.0684 H   0  0  0  0  0  0  0  0  0  0  0  0
   -2.9369    5.1298    0.4698 H   0  0  0  0  0  0  0  0  0  0  0  0
   -3.6041    3.4773    0.4791 H   0  0  0  0  0  0  0  0  0  0  0  0
   -4.3809   -1.9533    2.6302 H   0  0  0  0  0  0  0  0  0  0  0  0
   -5.4151   -2.9949    1.5934 H   0  0  0  0  0  0  0  0  0  0  0  0
   -5.6466   -1.2141    1.5921 H   0  0  0  0  0  0  0  0  0  0  0  0
   -2.1184   -2.9506   -0.2493 H   0  0  0  0  0  0  0  0  0  0  0  0
   -3.2542   -3.9665    0.6931 H   0  0  0  0  0  0  0  0  0  0  0  0
   -2.2008   -2.8031    1.5538 H   0  0  0  0  0  0  0  0  0  0  0  0
   -3.8647   -1.8117   -1.6827 H   0  0  0  0  0  0  0  0  0  0  0  0
   -5.3609   -1.1567   -0.9215 H   0  0  0  0  0  0  0  0  0  0  0  0
   -5.0879   -2.9262   -0.9826 H   0  0  0  0  0  0  0  0  0  0  0  0
  2  6  2  0  0  0  0
  4 11  2  0  0  0  0
  5 16  1  0  0  0  0
  6  7  1  0  0  0  0
  6  1  1  0  0  0  0
  7 17  1  6  0  0  0
  7  8  1  0  0  0  0
  7  5  1  0  0  0  0
  8 18  1  0  0  0  0
  9 20  1  0  0  0  0
  9 19  1  0  0  0  0
  9  8  1  0  0  0  0
 10  8  1  0  0  0  0
 10 23  1  0  0  0  0
 10 24  1  0  0  0  0
 11  5  1  0  0  0  0
 11  3  1  0  0  0  0
 12 14  1  0  0  0  0
 12  3  1  0  0  0  0
 12 13  1  0  0  0  0
 13 25  1  0  0  0  0
 14 29  1  0  0  0  0
 14 30  1  0  0  0  0
 15 12  1  0  0  0  0
 21  9  1  0  0  0  0
 22 10  1  0  0  0  0
 26 13  1  0  0  0  0
 27 13  1  0  0  0  0
 28 14  1  0  0  0  0
 31 15  1  0  0  0  0
 32 15  1  0  0  0  0
 33 15  1  0  0  0  0
M  CHG  1   1  -1
M  END
