1
q = -1.0, confidence = 0.012

 22 21  0  0  0  0  0  0  0  0999 V2000
    1.4371    0.0635   -0.6610 O   0  5  0  0  0  0  0  0  0  0  0  0
    2.8174   -1.0643    0.7821 O   0  0  0  0  0  0  0  0  0  0  0  0
    2.1242   -2.3259    0.6137 C   0  0  0  0  0  0  0  0  0  0  0  0
    1.0608   -2.1033    0.3667 H   0  0  0  0  0  0  0  0  0  0  0  0
    2.1908   -3.0371    1.9565 C   0  0  0  0  0  0  0  0  0  0  0  0
    1.7226   -2.4261    2.7520 H   0  0  0  0  0  0  0  0  0  0  0  0
    3.2440   -3.2327    2.2436 H   0  0  0  0  0  0  0  0  0  0  0  0
    1.6576   -4.0068    1.9028 H   0  0  0  0  0  0  0  0  0  0  0  0
    2.7576   -3.1260   -0.5206 C   0  0  0  0  0  0  0  0  0  0  0  0
    2.7622   -2.5411   -1.4619 H   0  0  0  0  0  0  0  0  0  0  0  0
    2.1925   -4.0622   -0.7023 H   0  0  0  0  0  0  0  0  0  0  0  0
    3.8060   -3.3903   -0.2734 H   0  0  0  0  0  0  0  0  0  0  0  0
    2.6865   -0.1435   -0.2318 C   0  0  0  0  0  0  0  0  0  0  0  0
    3.7728    0.5385   -0.6987 C   0  0  0  0  0  0  0  0  0  0  0  0
    5.1612    0.2245   -0.2190 C   0  0  0  0  0  0  0  0  0  0  0  0
    5.1690   -0.6378    0.4722 H   0  0  0  0  0  0  0  0  0  0  0  0
    5.6120    1.0942    0.3114 H   0  0  0  0  0  0  0  0  0  0  0  0
    5.8388    0.0013   -1.0734 H   0  0  0  0  0  0  0  0  0  0  0  0
    3.6139    1.6588   -1.6870 C   0  0  0  0  0  0  0  0  0  0  0  0
    2.5583    1.8036   -1.9829 H   0  0  0  0  0  0  0  0  0  0  0  0
    4.2062    1.4676   -2.6094 H   0  0  0  0  0  0  0  0  0  0  0  0
    3.9945    2.6197   -1.2711 H   0  0  0  0  0  0  0  0  0  0  0  0
  1 13  1  0  0  0  0
  3  2  1  0  0  0  0
  3  5  1  0  0  0  0
  4  3  1  0  0  0  0
  5  7  1  0  0  0  0
  5  6  1  0  0  0  0
  8  5  1  0  0  0  0
  9 12  1  0  0  0  0
  9  3  1  0  0  0  0
 10  9  1  0  0  0  0
 11  9  1  0  0  0  0
 13  2  1  0  0  0  0
 14 13  2  0  0  0  0
 14 15  1  0  0  0  0
 15 17  1  0  0  0  0
 15 16  1  0  0  0  0
 18 15  1  0  0  0  0
 19 22  1  0  0  0  0
 19 14  1  0  0  0  0
 20 19  1  0  0  0  0
 21 19  1  0  0  0  0
M  CHG  1   1  -1
M  END
