1
q = 0.0, confidence = 0.942

 15 15  0  0  0  0  0  0  0  0999 V2000
   -0.2155   -1.1027   -0.5807 O   0  5  0  0  0  0  0  0  0  0  0  0
   -1.1300   -2.4983    1.4565 N   0  0  0  0  0  4  0  0  0  0  0  0
   -1.5184   -1.3461   -0.6252 C   0  0  0  0  0  0  0  0  0  0  0  0
   -2.0874   -2.1001    0.4327 C   0  0  0  0  0  0  0  0  0  0  0  0
   -3.4512   -2.3908    0.5063 C   0  0  0  0  0  0  0  0  0  0  0  0
   -4.2980   -1.9214   -0.5113 C   0  0  0  0  0  0  0  0  0  0  0  0
   -3.7571   -1.1788   -1.5777 C   0  0  0  0  0  0  0  0  0  0  0  0
   -2.3881   -0.8890   -1.6428 C   0  0  0  0  0  0  0  0  0  0  0  0
   -0.3520   -3.0325    1.0313 H   0  0  0  0  0  0  0  0  0  0  0  0
   -0.5794   -1.5671    1.8877 H   0  0  0  0  0  0  0  0  0  0  0  0
   -1.5558   -3.0521    2.2128 H   0  0  0  0  0  0  0  0  0  0  0  0
   -3.8554   -2.9700    1.3522 H   0  0  0  0  0  0  0  0  0  0  0  0
   -5.3754   -2.1354   -0.4695 H   0  0  0  0  0  0  0  0  0  0  0  0
   -4.4231   -0.8090   -2.3725 H   0  0  0  0  0  0  0  0  0  0  0  0
   -1.9540   -0.2898   -2.4560 H   0  0  0  0  0  0  0  0  0  0  0  0
  2 10  1  0  0  0  0
  2 11  1  0  0  0  0
  3  1  1  0  0  0  0
  3  4  1  0  0  0  0
  4  5  2  0  0  0  0
  4  2  1  0  0  0  0
  5 12  1  0  0  0  0
  6 13  1  0  0  0  0
  6  5  1  0  0  0  0
  7  6  2  0  0  0  0
  8  7  1  0  0  0  0
  8  3  2  0  0  0  0
  9  2  1  0  0  0  0
 14  7  1  0  0  0  0
 15  8  1  0  0  0  0
M  CHG  1   1  -1
M  END
