12
q = -1.0, confidence = 0.166

 21 21  0  0  1  0  0  0  0  0999 V2000
    0.4651    2.9414   -0.5992 F   0  0  0  0  0  0  0  0  0  0  0  0
   -1.5467    3.6188   -0.2242 F   0  0  0  0  0  0  0  0  0  0  0  0
   -3.7484    2.4817   -1.1410 F   0  0  0  0  0  0  0  0  0  0  0  0
   -3.8375    2.3414    1.0353 F   0  0  0  0  0  0  0  0  0  0  0  0
   -4.9043    0.8968   -0.2057 F   0  0  0  0  0  0  0  0  0  0  0  0
   -4.3087   -1.1170    1.2888 F   0  0  0  0  0  0  0  0  0  0  0  0
   -4.3413   -1.8089   -0.7866 F   0  0  0  0  0  0  0  0  0  0  0  0
   -3.0772   -2.7936    0.6904 F   0  0  0  0  0  0  0  0  0  0  0  0
   -1.2611   -3.2195   -1.1607 F   0  0  0  0  0  0  0  0  0  0  0  0
   -0.3914   -3.0637    0.8378 F   0  0  0  0  0  0  0  0  0  0  0  0
    0.7600   -2.4536   -0.9042 F   0  0  0  0  0  0  0  0  0  0  0  0
    1.0222    0.2577   -0.6460 O   0  0  0  0  0  0  0  0  0  0  0  0
   -0.2539    0.1237   -0.4441 C   0  0  0  0  0  0  0  0  0  0  0  0
   -1.1874    1.2766   -0.3537 C   0  0  0  0  0  0  0  0  0  0  0  0
   -2.5302    0.7425   -0.1352 C   0  0  0  0  0  0  0  0  0  0  0  0
   -2.4085   -0.6368   -0.0426 C   0  0  0  0  0  0  0  0  0  0  0  0
   -1.0218   -1.0376   -0.2701 C   0  0  1  0  0  0  0  0  0  0  0  0
   -0.7738    2.5752   -0.3967 C   0  0  0  0  0  0  0  0  0  0  0  0
   -3.7618    1.5993   -0.1022 C   0  0  0  0  0  0  0  0  0  0  0  0
   -3.5421   -1.5920    0.2806 C   0  0  0  0  0  0  0  0  0  0  0  0
   -0.4955   -2.4329   -0.3721 C   0  0  0  0  0  0  0  0  0  0  0  0
  1 18  1  0  0  0  0
  3 19  1  0  0  0  0
  5 19  1  0  0  0  0
  7 20  1  0  0  0  0
  9 21  1  0  0  0  0
 11 21  1  0  0  0  0
 12 13  1  0  0  0  0
 13 14  2  0  0  0  0
 13 17  1  0  0  0  0
 14 15  1  0  0  0  0
 15 19  1  0  0  0  0
 15 16  2  0  0  0  0
 16 20  1  0  0  0  0
 17 21  1  6  0  0  0
 17 16  1  0  0  0  0
 18 14  1  0  0  0  0
 18  2  1  0  0  0  0
 19  4  1  0  0  0  0
 20  8  1  0  0  0  0
 20  6  1  0  0  0  0
 21 10  1  0  0  0  0
M  END
