9
q = -2.0, confidence = 0.946

 18 18  0  0  0  0  0  0  0  0999 V2000
   -3.2114    3.1858   -0.0692 Br  0  0  0  0  0  0  0  0  0  0  0  0
   -3.4472   -2.4628    0.1149 S   0  0  0  0  0  0  0  0  0  0  0  0
   -2.9927   -3.1099    1.3852 O   0  0  0  0  0  1  0  0  0  0  0  0
   -4.8437   -1.9113    0.1586 O   0  0  0  0  0  1  0  0  0  0  0  0
   -3.1063   -3.1991   -1.1418 O   0  0  0  0  0  1  0  0  0  0  0  0
   -0.3801   -2.1958   -0.0326 O   0  0  0  0  0  0  0  0  0  0  0  0
    0.6007   -1.9993   -0.0766 H   0  0  0  0  0  0  0  0  0  0  0  0
    1.8916    1.3194   -0.1782 O   0  5  0  0  0  0  0  0  0  0  0  0
    1.8430   -0.9408   -0.1396 O   0  0  0  0  0  0  0  0  0  0  0  0
   -2.4006   -0.9376    0.0172 C   0  0  0  0  0  0  0  0  0  0  0  0
   -0.9790   -1.0040   -0.0406 C   0  0  0  0  0  0  0  0  0  0  0  0
   -0.2333    0.2202   -0.1023 C   0  0  0  0  0  0  0  0  0  0  0  0
   -0.9098    1.4676   -0.1103 C   0  0  0  0  0  0  0  0  0  0  0  0
   -0.3066    2.3836   -0.1589 H   0  0  0  0  0  0  0  0  0  0  0  0
   -2.2970    1.4907   -0.0571 C   0  0  0  0  0  0  0  0  0  0  0  0
   -3.0451    0.2979    0.0076 C   0  0  0  0  0  0  0  0  0  0  0  0
   -4.1451    0.2787    0.0544 H   0  0  0  0  0  0  0  0  0  0  0  0
    1.2456    0.2404   -0.1425 C   0  0  0  0  0  0  0  0  0  0  0  0
  1 15  1  0  0  0  0
  2  4  1  0  0  0  0
  2  3  1  0  0  0  0
  5  2  1  0  0  0  0
  7  6  1  0  0  0  0
  8 18  1  0  0  0  0
 10  2  1  0  0  0  0
 11  6  1  0  0  0  0
 11 10  2  0  0  0  0
 12 11  1  0  0  0  0
 13 12  2  0  0  0  0
 13 15  1  0  0  0  0
 14 13  1  0  0  0  0
 15 16  2  0  0  0  0
 16 10  1  0  0  0  0
 16 17  1  0  0  0  0
 18  9  2  0  0  0  0
 18 12  1  0  0  0  0
M  CHG  1   8  -1
M  END
