14
q = -1.0, confidence = 0.016

 15 14  0  0  1  0  0  0  0  0999 V2000
   -1.1534    1.0614    1.3520 O   0  0  0  0  0  0  0  0  0  0  0  0
   -0.6516   -1.4732    1.9787 O   0  0  0  0  0  0  0  0  0  0  0  0
   -2.2779    0.7923    1.8016 C   0  0  0  0  0  0  0  0  0  0  0  0
   -2.7466   -0.4968    2.2567 C   0  0  0  0  0  3  0  0  0  0  0  0
   -1.9603   -1.6220    2.1486 C   0  0  2  0  0  3  0  0  0  0  0  0
   -3.3491    1.9174    1.7953 C   0  0  0  0  0  0  0  0  0  0  0  0
   -4.4226    1.5287    1.0598 F   0  0  0  0  0  0  0  0  0  0  0  0
   -3.7808    2.1607    3.0523 F   0  0  0  0  0  0  0  0  0  0  0  0
   -2.8664    3.0483    1.2742 F   0  0  0  0  0  0  0  0  0  0  0  0
   -2.5245   -3.0414    2.2250 C   0  0  0  0  0  0  0  0  0  0  0  0
   -3.7719   -3.0046    2.7440 F   0  0  0  0  0  0  0  0  0  0  0  0
   -1.7669   -3.8253    3.0051 F   0  0  0  0  0  0  0  0  0  0  0  0
   -2.6094   -3.5981    0.9995 F   0  0  0  0  0  0  0  0  0  0  0  0
    0.0373   -2.4744    1.1853 O   0  0  0  0  0  1  0  0  0  0  0  0
   -3.7939   -0.6163    2.5585 H   0  0  0  0  0  0  0  0  0  0  0  0
  1  3  2  0  0  0  0
  3  4  1  0  0  0  0
  4 15  1  0  0  0  0
  5  2  1  1  0  0  0
  5 10  1  0  0  0  0
  5  4  1  0  0  0  0
  6  3  1  0  0  0  0
  6  8  1  0  0  0  0
  7  6  1  0  0  0  0
  9  6  1  0  0  0  0
 10 11  1  0  0  0  0
 10 12  1  0  0  0  0
 13 10  1  0  0  0  0
 14  2  1  0  0  0  0
M  END
