2
q = -1.0, confidence = 0.124

 58 61  0  0  0  0  0  0  0  0999 V2000
   -2.0275    0.1797    0.3745 P   0  0  0  0  0  0  0  0  0  0  0  0
    0.5568    0.4926   -0.9238 O   0  5  0  0  0  0  0  0  0  0  0  0
   -2.9036    2.9789    1.1483 O   0  0  0  0  0  0  0  0  0  0  0  0
    1.9545    1.6744   -3.8977 N   0  0  0  0  0  0  0  0  0  0  0  0
    3.3784    5.0442   -1.6879 N   0  0  0  0  0  0  0  0  0  0  0  0
    8.3398   -0.5536    1.0465 N   0  0  0  0  0  0  0  0  0  0  0  0
    4.8411   -3.1396    1.6086 N   0  0  0  0  0  0  0  0  0  0  0  0
   -2.0575    0.1014    2.2155 C   0  0  0  0  0  0  0  0  0  0  0  0
   -0.7970    0.1334    2.8500 C   0  0  0  0  0  0  0  0  0  0  0  0
   -0.7047    0.0932    4.2473 C   0  0  0  0  0  0  0  0  0  0  0  0
   -1.8722    0.0204    5.0271 C   0  0  0  0  0  0  0  0  0  0  0  0
   -3.1277    0.0043    4.4008 C   0  0  0  0  0  0  0  0  0  0  0  0
   -3.2243    0.0492    3.0001 C   0  0  0  0  0  0  0  0  0  0  0  0
   -3.7697    0.1762   -0.1698 C   0  0  0  0  0  0  0  0  0  0  0  0
   -4.2711    1.1859   -1.0123 C   0  0  0  0  0  0  0  0  0  0  0  0
   -5.5893    1.1125   -1.4827 C   0  0  0  0  0  0  0  0  0  0  0  0
   -6.4123    0.0324   -1.1254 C   0  0  0  0  0  0  0  0  0  0  0  0
   -5.9095   -0.9862   -0.3006 C   0  0  0  0  0  0  0  0  0  0  0  0
   -4.5899   -0.9191    0.1697 C   0  0  0  0  0  0  0  0  0  0  0  0
   -1.2301    1.7666    0.0393 C   0  0  0  0  0  0  0  0  0  0  0  0
    0.0433    1.6455   -0.5929 C   0  0  0  0  0  0  0  0  0  0  0  0
    0.7973    2.8492   -0.8034 C   0  0  0  0  0  0  0  0  0  0  0  0
    0.2810    4.0765   -0.3834 C   0  0  0  0  0  0  0  0  0  0  0  0
   -0.9627    4.1856    0.2674 C   0  0  0  0  0  0  0  0  0  0  0  0
   -1.7118    3.0168    0.4959 C   0  0  0  0  0  0  0  0  0  0  0  0
   -3.4471    4.1852    1.6538 C   0  0  0  0  0  0  0  0  0  0  0  0
    2.1777    2.6914   -1.4548 C   0  0  0  0  0  0  0  0  0  0  0  0
    3.1421    1.8079   -0.6099 C   0  0  0  0  0  0  0  0  0  0  0  0
    4.1947    1.1120   -1.2276 C   0  0  0  0  0  0  0  0  0  0  0  0
    5.0723    0.3335   -0.4638 C   0  0  0  0  0  0  0  0  0  0  0  0
    4.9038    0.2487    0.9281 C   0  0  0  0  0  0  0  0  0  0  0  0
    3.8641    0.9608    1.5501 C   0  0  0  0  0  0  0  0  0  0  0  0
    2.9906    1.7437    0.7839 C   0  0  0  0  0  0  0  0  0  0  0  0
    5.7987   -0.6770    1.7653 C   0  0  0  0  0  0  0  0  0  0  0  0
    2.0348    2.1129   -2.8154 C   0  0  0  0  0  0  0  0  0  0  0  0
    2.8380    4.0091   -1.6031 C   0  0  0  0  0  0  0  0  0  0  0  0
    7.2177   -0.6159    1.3716 C   0  0  0  0  0  0  0  0  0  0  0  0
    5.2968   -2.0646    1.6910 C   0  0  0  0  0  0  0  0  0  0  0  0
    0.1125    0.1961    2.2325 H   0  0  0  0  0  0  0  0  0  0  0  0
    0.2832    0.1191    4.7325 H   0  0  0  0  0  0  0  0  0  0  0  0
   -1.8018   -0.0160    6.1248 H   0  0  0  0  0  0  0  0  0  0  0  0
   -4.0453   -0.0367    5.0074 H   0  0  0  0  0  0  0  0  0  0  0  0
   -4.2120    0.0586    2.5176 H   0  0  0  0  0  0  0  0  0  0  0  0
   -3.6172    2.0159   -1.3134 H   0  0  0  0  0  0  0  0  0  0  0  0
   -5.9736    1.9027   -2.1452 H   0  0  0  0  0  0  0  0  0  0  0  0
   -7.4457   -0.0217   -1.4999 H   0  0  0  0  0  0  0  0  0  0  0  0
   -6.5445   -1.8427   -0.0279 H   0  0  0  0  0  0  0  0  0  0  0  0
   -4.1950   -1.7300    0.8007 H   0  0  0  0  0  0  0  0  0  0  0  0
    0.8698    4.9906   -0.5549 H   0  0  0  0  0  0  0  0  0  0  0  0
   -1.3245    5.1711    0.5841 H   0  0  0  0  0  0  0  0  0  0  0  0
   -3.6585    4.9133    0.8401 H   0  0  0  0  0  0  0  0  0  0  0  0
   -4.3962    3.9121    2.1505 H   0  0  0  0  0  0  0  0  0  0  0  0
   -2.7691    4.6611    2.3959 H   0  0  0  0  0  0  0  0  0  0  0  0
    4.3163    1.1602   -2.3198 H   0  0  0  0  0  0  0  0  0  0  0  0
    5.8900   -0.2140   -0.9566 H   0  0  0  0  0  0  0  0  0  0  0  0
    3.7285    0.9011    2.6414 H   0  0  0  0  0  0  0  0  0  0  0  0
    2.1705    2.2959    1.2657 H   0  0  0  0  0  0  0  0  0  0  0  0
    5.7393   -0.3647    2.8321 H   0  0  0  0  0  0  0  0  0  0  0  0
  1  8  1  0  0  0  0
  2 21  1  0  0  0  0
  3 26  1  0  0  0  0
  4 35  3  0  0  0  0
  5 36  3  0  0  0  0
  6 37  3  0  0  0  0
  7 38  3  0  0  0  0
  8  9  2  0  0  0  0
  8 13  1  0  0  0  0
  9 10  1  0  0  0  0
 10 40  1  0  0  0  0
 10 11  2  0  0  0  0
 11 41  1  0  0  0  0
 12 42  1  0  0  0  0
 12 11  1  0  0  0  0
 13 12  2  0  0  0  0
 14 19  1  0  0  0  0
 14  1  1  0  0  0  0
 15 14  2  0  0  0  0
 16 17  2  0  0  0  0
 16 15  1  0  0  0  0
 17 18  1  0  0  0  0
 18 47  1  0  0  0  0
 18 19  2  0  0  0  0
 19 48  1  0  0  0  0
 20  1  1  0  0  0  0
 20 25  1  0  0  0  0
 21 20  2  0  0  0  0
 22 21  1  0  0  0  0
 22 23  2  0  0  0  0
 23 24  1  0  0  0  0
 24 25  2  0  0  0  0
 24 50  1  0  0  0  0
 25  3  1  0  0  0  0
 26 52  1  0  0  0  0
 26 53  1  0  0  0  0
 27 22  1  0  0  0  0
 27 28  1  0  0  0  0
 28 33  1  0  0  0  0
 29 28  2  0  0  0  0
 29 30  1  0  0  0  0
 30 31  2  0  0  0  0
 31 32  1  0  0  0  0
 31 34  1  0  0  0  0
 32 56  1  0  0  0  0
 33 57  1  0  0  0  0
 33 32  2  0  0  0  0
 34 58  1  0  0  0  0
 35 27  1  0  0  0  0
 36 27  1  0  0  0  0
 37 34  1  0  0  0  0
 38 34  1  0  0  0  0
 39  9  1  0  0  0  0
 43 13  1  0  0  0  0
 44 15  1  0  0  0  0
 45 16  1  0  0  0  0
 46 17  1  0  0  0  0
 49 23  1  0  0  0  0
 51 26  1  0  0  0  0
 54 29  1  0  0  0  0
 55 30  1  0  0  0  0
M  CHG  1   2  -1
M  END
