1
q = -1.0, confidence = 0.012

 34 35  0  0  0  0  0  0  0  0999 V2000
   -0.0870   -0.0000   -2.2235 O   0  0  0  0  0  1  0  0  0  0  0  0
    1.3282    0.0005   -2.1099 N   0  0  0  0  0  0  0  0  0  0  0  0
    1.6931   -1.8568    0.3427 N   0  0  0  0  0  0  0  0  0  0  0  0
    1.6917    1.8581    0.3428 N   0  0  0  0  0  0  0  0  0  0  0  0
    1.8742   -1.2057   -2.7473 C   0  0  0  0  0  0  0  0  0  0  0  0
    2.9793   -1.1055   -2.7729 H   0  0  0  0  0  0  0  0  0  0  0  0
    1.5064   -1.2578   -3.7990 H   0  0  0  0  0  0  0  0  0  0  0  0
    1.4899   -2.4990   -2.0162 C   0  0  0  0  0  0  0  0  0  0  0  0
    0.3868   -2.5285   -1.9069 H   0  0  0  0  0  0  0  0  0  0  0  0
    1.7745   -3.3558   -2.6565 H   0  0  0  0  0  0  0  0  0  0  0  0
    2.1464   -2.6420   -0.6692 C   0  0  0  0  0  0  0  0  0  0  0  0
    3.2169   -3.5337   -0.4689 C   0  0  0  0  0  0  0  0  0  0  0  0
    3.5598   -4.1621   -1.3038 H   0  0  0  0  0  0  0  0  0  0  0  0
    3.8296   -3.6156    0.7874 C   0  0  0  0  0  0  0  0  0  0  0  0
    4.6666   -4.3101    0.9551 H   0  0  0  0  0  0  0  0  0  0  0  0
    3.3514   -2.8040    1.8257 C   0  0  0  0  0  0  0  0  0  0  0  0
    3.7917   -2.8379    2.8321 H   0  0  0  0  0  0  0  0  0  0  0  0
    2.2797   -1.9454    1.5598 C   0  0  0  0  0  0  0  0  0  0  0  0
    1.8324   -1.3087    2.3416 H   0  0  0  0  0  0  0  0  0  0  0  0
    1.8733    1.2072   -2.7473 C   0  0  0  0  0  0  0  0  0  0  0  0
    1.5054    1.2590   -3.7990 H   0  0  0  0  0  0  0  0  0  0  0  0
    2.9784    1.1078   -2.7729 H   0  0  0  0  0  0  0  0  0  0  0  0
    1.4880    2.5002   -2.0162 C   0  0  0  0  0  0  0  0  0  0  0  0
    1.7720    3.3571   -2.6564 H   0  0  0  0  0  0  0  0  0  0  0  0
    0.3849    2.5288   -1.9068 H   0  0  0  0  0  0  0  0  0  0  0  0
    2.1444    2.6436   -0.6692 C   0  0  0  0  0  0  0  0  0  0  0  0
    3.2144    3.5361   -0.4689 C   0  0  0  0  0  0  0  0  0  0  0  0
    3.5568    4.1646   -1.3038 H   0  0  0  0  0  0  0  0  0  0  0  0
    3.8270    3.6183    0.7874 C   0  0  0  0  0  0  0  0  0  0  0  0
    4.6636    4.3134    0.9551 H   0  0  0  0  0  0  0  0  0  0  0  0
    3.3493    2.8064    1.8257 C   0  0  0  0  0  0  0  0  0  0  0  0
    3.7897    2.8406    2.8321 H   0  0  0  0  0  0  0  0  0  0  0  0
    2.2782    1.9471    1.5598 C   0  0  0  0  0  0  0  0  0  0  0  0
    1.8314    1.3100    2.3416 H   0  0  0  0  0  0  0  0  0  0  0  0
  1  2  1  0  0  0  0
  3 18  1  0  0  0  0
  4 33  1  0  0  0  0
  5  2  1  0  0  0  0
  5  8  1  0  0  0  0
  6  5  1  0  0  0  0
  7  5  1  0  0  0  0
  8  9  1  0  0  0  0
  8 11  1  0  0  0  0
 10  8  1  0  0  0  0
 11 12  1  0  0  0  0
 11  3  2  0  0  0  0
 12 14  2  0  0  0  0
 13 12  1  0  0  0  0
 14 15  1  0  0  0  0
 14 16  1  0  0  0  0
 16 17  1  0  0  0  0
 18 16  2  0  0  0  0
 18 19  1  0  0  0  0
 20  2  1  0  0  0  0
 20 23  1  0  0  0  0
 21 20  1  0  0  0  0
 22 20  1  0  0  0  0
 23 25  1  0  0  0  0
 23 26  1  0  0  0  0
 24 23  1  0  0  0  0
 26 27  1  0  0  0  0
 26  4  2  0  0  0  0
 27 29  2  0  0  0  0
 28 27  1  0  0  0  0
 29 30  1  0  0  0  0
 29 31  1  0  0  0  0
 31 32  1  0  0  0  0
 33 31  2  0  0  0  0
 33 34  1  0  0  0  0
M  END
