1
q = -1.0, confidence = 0.004

 26 26  0  0  0  0  0  0  0  0999 V2000
   -0.1090    0.3019   -0.0003 O   0  5  0  0  0  0  0  0  0  0  0  0
    0.6481   -0.7486   -0.0004 C   0  0  0  0  0  0  0  0  0  0  0  0
    0.2720   -1.9348   -0.0002 O   0  0  0  0  0  0  0  0  0  0  0  0
    2.1363   -0.4439   -0.0004 C   0  0  0  0  0  0  0  0  0  0  0  0
    2.6280    0.8723   -0.0007 C   0  0  0  0  0  0  0  0  0  0  0  0
    1.8982    1.6951   -0.0010 H   0  0  0  0  0  0  0  0  0  0  0  0
    4.0092    1.1225   -0.0006 C   0  0  0  0  0  0  0  0  0  0  0  0
    4.3531    2.1667   -0.0008 H   0  0  0  0  0  0  0  0  0  0  0  0
    4.9462    0.0683   -0.0001 C   0  0  0  0  0  0  0  0  0  0  0  0
    4.4375   -1.2515    0.0002 C   0  0  0  0  0  0  0  0  0  0  0  0
    5.1347   -2.1053    0.0005 H   0  0  0  0  0  0  0  0  0  0  0  0
    3.0619   -1.5047    0.0000 C   0  0  0  0  0  0  0  0  0  0  0  0
    2.6576   -2.5282    0.0002 H   0  0  0  0  0  0  0  0  0  0  0  0
    6.4686    0.3013    0.0000 C   0  0  0  0  0  0  0  0  0  0  0  0
    7.0851   -0.3447    1.2617 C   0  0  0  0  0  0  0  0  0  0  0  0
    6.6603    0.1065    2.1813 H   0  0  0  0  0  0  0  0  0  0  0  0
    8.1864   -0.1990    1.2795 H   0  0  0  0  0  0  0  0  0  0  0  0
    6.8856   -1.4339    1.3012 H   0  0  0  0  0  0  0  0  0  0  0  0
    6.8310    1.7965   -0.0005 C   0  0  0  0  0  0  0  0  0  0  0  0
    6.4353    2.3142   -0.8974 H   0  0  0  0  0  0  0  0  0  0  0  0
    7.9340    1.9180   -0.0004 H   0  0  0  0  0  0  0  0  0  0  0  0
    6.4350    2.3149    0.8959 H   0  0  0  0  0  0  0  0  0  0  0  0
    7.0855   -0.3457   -1.2609 C   0  0  0  0  0  0  0  0  0  0  0  0
    6.8861   -1.4349   -1.2997 H   0  0  0  0  0  0  0  0  0  0  0  0
    8.1868   -0.2000   -1.2784 H   0  0  0  0  0  0  0  0  0  0  0  0
    6.6611    0.1049   -2.1810 H   0  0  0  0  0  0  0  0  0  0  0  0
  2  4  1  0  0  0  0
  2  1  1  0  0  0  0
  2  3  2  0  0  0  0
  4 12  1  0  0  0  0
  5  7  1  0  0  0  0
  5  4  2  0  0  0  0
  6  5  1  0  0  0  0
  7  9  2  0  0  0  0
  8  7  1  0  0  0  0
  9 14  1  0  0  0  0
  9 10  1  0  0  0  0
 10 11  1  0  0  0  0
 12 10  2  0  0  0  0
 12 13  1  0  0  0  0
 14 15  1  0  0  0  0
 15 17  1  0  0  0  0
 15 18  1  0  0  0  0
 15 16  1  0  0  0  0
 19 21  1  0  0  0  0
 19 14  1  0  0  0  0
 19 22  1  0  0  0  0
 20 19  1  0  0  0  0
 23 14  1  0  0  0  0
 24 23  1  0  0  0  0
 25 23  1  0  0  0  0
 26 23  1  0  0  0  0
M  CHG  1   1  -1
M  END
