3
q = -1.0, confidence = 0.0

 12 12  0  0  0  0  0  0  0  0999 V2000
   -2.3682   -1.8407    1.8949 S   0  0  0  0  0  0  0  0  0  0  0  0
   -4.7474   -0.4796    0.5147 S   0  0  0  0  0  0  0  0  0  0  0  0
   -1.2299   -1.1257   -0.8848 O   0  5  0  0  0  0  0  0  0  0  0  0
   -2.5077   -0.8445   -0.6382 N   0  0  0  0  0  0  0  0  0  0  0  0
   -3.0944   -1.1137    0.5816 C   0  0  0  0  0  0  0  0  0  0  0  0
   -4.5263    0.1290   -1.1143 C   0  0  0  0  0  0  0  0  0  0  0  0
   -5.3320    0.6405   -1.6516 H   0  0  0  0  0  0  0  0  0  0  0  0
   -3.2664   -0.1356   -1.5743 C   0  0  0  0  0  0  0  0  0  0  0  0
   -2.6173    0.2378   -2.8612 C   0  0  0  0  0  0  0  0  0  0  0  0
   -2.2621   -0.6620   -3.4030 H   0  0  0  0  0  0  0  0  0  0  0  0
   -1.7215    0.8598   -2.6560 H   0  0  0  0  0  0  0  0  0  0  0  0
   -3.3206    0.7975   -3.5049 H   0  0  0  0  0  0  0  0  0  0  0  0
  2  5  1  0  0  0  0
  3  4  1  0  0  0  0
  4  5  1  0  0  0  0
  5  1  2  0  0  0  0
  6  2  1  0  0  0  0
  7  6  1  0  0  0  0
  8  6  2  0  0  0  0
  8  4  1  0  0  0  0
  9 11  1  0  0  0  0
  9  8  1  0  0  0  0
 10  9  1  0  0  0  0
 12  9  1  0  0  0  0
M  CHG  1   3  -1
M  END
