1
q = -1.0, confidence = 0.006

 14 14  0  0  0  0  0  0  0  0999 V2000
   -1.2433   -1.1616   -1.6816 O   0  5  0  0  0  0  0  0  0  0  0  0
   -2.2157   -0.3660    0.1348 N   0  0  0  0  0  0  0  0  0  0  0  0
   -3.2621   -0.0155    0.9109 C   0  0  0  0  0  0  0  0  0  0  0  0
   -2.3880   -0.8777   -1.1110 C   0  0  0  0  0  0  0  0  0  0  0  0
   -3.6774   -1.0663   -1.6645 C   0  0  0  0  0  0  0  0  0  0  0  0
   -3.7829   -1.4848   -2.6743 H   0  0  0  0  0  0  0  0  0  0  0  0
   -4.5706   -0.1809    0.4218 C   0  0  0  0  0  0  0  0  0  0  0  0
   -5.4252    0.1048    1.0509 H   0  0  0  0  0  0  0  0  0  0  0  0
   -4.7670   -0.7061   -0.8707 C   0  0  0  0  0  0  0  0  0  0  0  0
   -5.7908   -0.8357   -1.2557 H   0  0  0  0  0  0  0  0  0  0  0  0
   -2.9856    0.5638    2.2692 C   0  0  0  0  0  0  0  0  0  0  0  0
   -2.5879    1.5962    2.1747 H   0  0  0  0  0  0  0  0  0  0  0  0
   -2.2061   -0.0184    2.7945 H   0  0  0  0  0  0  0  0  0  0  0  0
   -3.9070    0.6007    2.8798 H   0  0  0  0  0  0  0  0  0  0  0  0
  1  4  1  0  0  0  0
  2  3  1  0  0  0  0
  3 11  1  0  0  0  0
  4  2  2  0  0  0  0
  5  4  1  0  0  0  0
  5  9  2  0  0  0  0
  6  5  1  0  0  0  0
  7  3  2  0  0  0  0
  7  8  1  0  0  0  0
  9  7  1  0  0  0  0
 10  9  1  0  0  0  0
 11 13  1  0  0  0  0
 11 14  1  0  0  0  0
 12 11  1  0  0  0  0
M  CHG  1   1  -1
M  END
