11
q = -2.0, confidence = 0.91

 14 13  0  0  1  0  0  0  0  0999 V2000
    2.8445   -1.0207    0.2586 C   0  0  0  0  0  0  0  0  0  0  0  0
    2.6386    0.3143   -0.5321 C   0  0  2  0  0  0  0  0  0  0  0  0
    3.5906    0.5574   -1.0594 H   0  0  0  0  0  0  0  0  0  0  0  0
    2.2904    1.5628    0.2928 C   0  0  1  0  0  0  0  0  0  0  0  0
    3.0067    1.5493    1.1521 H   0  0  0  0  0  0  0  0  0  0  0  0
    2.6249    2.8409   -0.5238 C   0  0  0  0  0  0  0  0  0  0  0  0
    2.3795   -2.0308   -0.3852 O   0  5  0  0  0  0  0  0  0  0  0  0
    3.3928   -1.0294    1.3825 O   0  0  0  0  0  0  0  0  0  0  0  0
    1.6008    0.0534   -1.4916 O   0  0  0  0  0  0  0  0  0  0  0  0
    1.6796   -0.9545   -1.4941 H   0  0  0  0  0  0  0  0  0  0  0  0
    0.9582    1.6478    0.7406 O   0  0  0  0  0  1  0  0  0  0  0  0
    0.9671    3.2242    0.1292 H   0  0  0  0  0  0  0  0  0  0  0  0
    1.6257    3.7298   -0.4496 O   0  0  0  0  0  0  0  0  0  0  0  0
    3.6625    3.0098   -1.1327 O   0  0  0  0  0  0  0  0  0  0  0  0
  1  8  2  0  0  0  0
  2  3  1  6  0  0  0
  2  1  1  0  0  0  0
  2  4  1  0  0  0  0
  4 11  1  0  0  0  0
  4  5  1  1  0  0  0
  6 13  1  0  0  0  0
  6  4  1  0  0  0  0
  7  1  1  0  0  0  0
  9  2  1  0  0  0  0
 10  9  1  0  0  0  0
 13 12  1  0  0  0  0
 14  6  2  0  0  0  0
M  CHG  1   7  -1
M  END
