2
q = 0.0, confidence = 0.994

 32 34  0  0  0  0  0  0  0  0999 V2000
    6.5933   -3.1738    4.2729 Br  0  0  0  0  0  0  0  0  0  0  0  0
    1.6442    1.0323   -1.0402 O   0  5  0  0  0  0  0  0  0  0  0  0
    3.8087    0.5796    0.3438 N   0  0  0  0  0  4  0  0  0  0  0  0
    2.8182    0.3639    0.0899 H   0  0  0  0  0  0  0  0  0  0  0  0
    4.4878   -0.2746    1.2307 C   0  0  0  0  0  0  0  0  0  0  0  0
    2.2550    1.9862   -1.6599 C   0  0  0  0  0  0  0  0  0  0  0  0
    3.5946    2.3876   -1.2708 C   0  0  0  0  0  0  0  0  0  0  0  0
    4.2988    1.6332   -0.3058 C   0  0  0  0  0  0  0  0  0  0  0  0
    5.3373    1.9041   -0.0652 H   0  0  0  0  0  0  0  0  0  0  0  0
    3.5438    4.1881   -2.9971 C   0  0  0  0  0  0  0  0  0  0  0  0
    4.2321    3.5310   -1.9208 C   0  0  0  0  0  0  0  0  0  0  0  0
    2.2458    3.7158   -3.3910 C   0  0  0  0  0  0  0  0  0  0  0  0
    1.7444    4.2258   -4.2293 H   0  0  0  0  0  0  0  0  0  0  0  0
    5.8940   -0.2889    1.3387 C   0  0  0  0  0  0  0  0  0  0  0  0
    6.5181    0.3468    0.6945 H   0  0  0  0  0  0  0  0  0  0  0  0
    1.6212    2.6697   -2.7575 C   0  0  0  0  0  0  0  0  0  0  0  0
    0.6266    2.3127   -3.0584 H   0  0  0  0  0  0  0  0  0  0  0  0
    5.5040    4.0414   -1.5495 C   0  0  0  0  0  0  0  0  0  0  0  0
    6.0619    3.5922   -0.7154 H   0  0  0  0  0  0  0  0  0  0  0  0
    6.5197   -1.1474    2.2483 C   0  0  0  0  0  0  0  0  0  0  0  0
    7.6154   -1.1656    2.3286 H   0  0  0  0  0  0  0  0  0  0  0  0
    4.1451    5.2915   -3.6573 C   0  0  0  0  0  0  0  0  0  0  0  0
    3.5953    5.7722   -4.4816 H   0  0  0  0  0  0  0  0  0  0  0  0
    6.0749    5.1273   -2.2111 C   0  0  0  0  0  0  0  0  0  0  0  0
    7.0622    5.4951   -1.8932 H   0  0  0  0  0  0  0  0  0  0  0  0
    3.7146   -1.1464    2.0267 C   0  0  0  0  0  0  0  0  0  0  0  0
    2.6171   -1.1363    1.9383 H   0  0  0  0  0  0  0  0  0  0  0  0
    5.3976    5.7605   -3.2765 C   0  0  0  0  0  0  0  0  0  0  0  0
    5.8549    6.6165   -3.7941 H   0  0  0  0  0  0  0  0  0  0  0  0
    5.7400   -2.0043    3.0439 C   0  0  0  0  0  0  0  0  0  0  0  0
    4.3398   -2.0097    2.9310 C   0  0  0  0  0  0  0  0  0  0  0  0
    3.7367   -2.6881    3.5500 H   0  0  0  0  0  0  0  0  0  0  0  0
  3  5  1  0  0  0  0
  4  3  1  0  0  0  0
  5 14  2  0  0  0  0
  5 26  1  0  0  0  0
  6  7  1  0  0  0  0
  6  2  1  0  0  0  0
  7  8  1  0  0  0  0
  8  9  1  0  0  0  0
  8  3  2  0  0  0  0
 10 11  1  0  0  0  0
 11 18  1  0  0  0  0
 11  7  2  0  0  0  0
 12 10  2  0  0  0  0
 12 16  1  0  0  0  0
 13 12  1  0  0  0  0
 14 20  1  0  0  0  0
 15 14  1  0  0  0  0
 16  6  2  0  0  0  0
 17 16  1  0  0  0  0
 18 19  1  0  0  0  0
 20 21  1  0  0  0  0
 20 30  2  0  0  0  0
 22 28  2  0  0  0  0
 22 10  1  0  0  0  0
 23 22  1  0  0  0  0
 24 25  1  0  0  0  0
 24 18  2  0  0  0  0
 26 31  2  0  0  0  0
 27 26  1  0  0  0  0
 28 24  1  0  0  0  0
 29 28  1  0  0  0  0
 30  1  1  0  0  0  0
 31 30  1  0  0  0  0
 31 32  1  0  0  0  0
M  CHG  1   2  -1
M  END
