2
q = -1.0, confidence = 0.088

 37 39  0  0  1  0  0  0  0  0999 V2000
   -1.5275    1.2774   -0.1116 P   0  0  0  0  0  4  0  0  0  0  0  0
   -0.2353    0.6136    0.3562 O   0  0  0  0  0  1  0  0  0  0  0  0
   -3.2092   -1.6239   -2.2977 N   0  0  0  0  0  0  0  0  0  0  0  0
   -3.0287   -1.1902   -3.2095 H   0  0  0  0  0  0  0  0  0  0  0  0
   -2.3724    0.3408   -1.3317 N   0  0  0  0  0  0  0  0  0  0  0  0
   -2.0558    0.5851   -2.2789 H   0  0  0  0  0  0  0  0  0  0  0  0
   -2.8546   -0.9326   -1.1718 C   0  0  1  0  0  3  0  0  0  0  0  0
   -3.0462   -1.5796    0.0721 C   0  0  0  0  0  0  0  0  0  0  0  0
   -2.7601   -1.0643    0.9958 H   0  0  0  0  0  0  0  0  0  0  0  0
   -3.5498   -2.8744    0.1048 C   0  0  0  0  0  0  0  0  0  0  0  0
   -3.6738   -3.3749    1.0762 H   0  0  0  0  0  0  0  0  0  0  0  0
   -3.8668   -3.5617   -1.0893 C   0  0  0  0  0  0  0  0  0  0  0  0
   -4.2440   -4.5925   -1.0816 H   0  0  0  0  0  0  0  0  0  0  0  0
   -3.6742   -2.9073   -2.2896 C   0  0  0  0  0  0  0  0  0  0  0  0
   -3.8747   -3.3534   -3.2731 H   0  0  0  0  0  0  0  0  0  0  0  0
   -1.2664    2.8297   -0.9788 C   0  0  0  0  0  0  0  0  0  0  0  0
   -0.0660    3.5170   -0.6953 C   0  0  0  0  0  0  0  0  0  0  0  0
    0.6758    3.0742   -0.0129 H   0  0  0  0  0  0  0  0  0  0  0  0
    0.1700    4.7606   -1.2965 C   0  0  0  0  0  0  0  0  0  0  0  0
    1.1059    5.2975   -1.0833 H   0  0  0  0  0  0  0  0  0  0  0  0
   -0.7792    5.3143   -2.1706 C   0  0  0  0  0  0  0  0  0  0  0  0
   -0.5866    6.2896   -2.6420 H   0  0  0  0  0  0  0  0  0  0  0  0
   -1.9758    4.6310   -2.4464 C   0  0  0  0  0  0  0  0  0  0  0  0
   -2.7181    5.0702   -3.1289 H   0  0  0  0  0  0  0  0  0  0  0  0
   -2.2284    3.3892   -1.8485 C   0  0  0  0  0  0  0  0  0  0  0  0
   -3.1731    2.8648   -2.0605 H   0  0  0  0  0  0  0  0  0  0  0  0
   -2.6725    1.4303    1.2688 C   0  0  0  0  0  0  0  0  0  0  0  0
   -2.1697    1.1666    2.5611 C   0  0  0  0  0  0  0  0  0  0  0  0
   -1.1222    0.8523    2.6857 H   0  0  0  0  0  0  0  0  0  0  0  0
   -3.0206    1.3064    3.6672 C   0  0  0  0  0  0  0  0  0  0  0  0
   -2.6365    1.1038    4.6778 H   0  0  0  0  0  0  0  0  0  0  0  0
   -4.3542    1.7062    3.4849 C   0  0  0  0  0  0  0  0  0  0  0  0
   -5.0168    1.8163    4.3564 H   0  0  0  0  0  0  0  0  0  0  0  0
   -4.8484    1.9721    2.1954 C   0  0  0  0  0  0  0  0  0  0  0  0
   -5.8929    2.2890    2.0596 H   0  0  0  0  0  0  0  0  0  0  0  0
   -4.0102    1.8387    1.0813 C   0  0  0  0  0  0  0  0  0  0  0  0
   -4.3981    2.0517    0.0735 H   0  0  0  0  0  0  0  0  0  0  0  0
  1  2  1  0  0  0  0
  1 27  1  0  0  0  0
  3 14  1  0  0  0  0
  3  7  1  0  0  0  0
  4  3  1  0  0  0  0
  5  1  1  0  0  0  0
  6  5  1  0  0  0  0
  7  5  1  1  0  0  0
  7  8  1  0  0  0  0
  8 10  2  0  0  0  0
  8  9  1  0  0  0  0
 10 11  1  0  0  0  0
 12 13  1  0  0  0  0
 12 10  1  0  0  0  0
 14 12  2  0  0  0  0
 15 14  1  0  0  0  0
 16 17  1  0  0  0  0
 16  1  1  0  0  0  0
 17 18  1  0  0  0  0
 19 20  1  0  0  0  0
 19 17  2  0  0  0  0
 21 19  1  0  0  0  0
 22 21  1  0  0  0  0
 23 21  2  0  0  0  0
 23 25  1  0  0  0  0
 24 23  1  0  0  0  0
 25 16  2  0  0  0  0
 26 25  1  0  0  0  0
 27 28  1  0  0  0  0
 28 29  1  0  0  0  0
 28 30  2  0  0  0  0
 30 31  1  0  0  0  0
 32 30  1  0  0  0  0
 32 33  1  0  0  0  0
 34 32  2  0  0  0  0
 35 34  1  0  0  0  0
 36 27  2  0  0  0  0
 36 34  1  0  0  0  0
 37 36  1  0  0  0  0
M  END
