3
q = -1.0, confidence = 0.074

 59 63  0  0  0  0  0  0  0  0999 V2000
   -0.0900    0.7841    0.9110 P   0  0  0  0  0  4  0  0  0  0  0  0
    1.3950    0.4245    0.6535 O   0  0  0  0  0  0  0  0  0  0  0  0
   -1.1493   -0.0581    0.1174 O   0  0  0  0  0  1  0  0  0  0  0  0
    1.8860    0.2078   -1.8751 C   0  0  0  0  0  0  0  0  0  0  0  0
    4.1800    0.9306    0.7802 C   0  0  0  0  0  0  0  0  0  0  0  0
    3.4145    1.6513    1.1105 H   0  0  0  0  0  0  0  0  0  0  0  0
   -0.3282    2.5494    0.5472 C   0  0  0  0  0  0  0  0  0  0  0  0
    3.7761   -0.1961    0.0279 C   0  0  0  0  0  0  0  0  0  0  0  0
    0.6922   -0.1068   -2.5688 C   0  0  0  0  0  0  0  0  0  0  0  0
    0.0138   -0.8683   -2.1530 H   0  0  0  0  0  0  0  0  0  0  0  0
    1.4230   -2.5137    1.0215 C   0  0  0  0  0  0  0  0  0  0  0  0
    1.3664   -1.8346    1.8877 H   0  0  0  0  0  0  0  0  0  0  0  0
    1.8047   -1.9894   -0.2361 C   0  0  0  0  0  0  0  0  0  0  0  0
    6.5160    0.2536    0.6948 C   0  0  0  0  0  0  0  0  0  0  0  0
    7.5727    0.4252    0.9534 H   0  0  0  0  0  0  0  0  0  0  0  0
   -0.4431    0.5067    2.6676 C   0  0  0  0  0  0  0  0  0  0  0  0
   -1.7653    0.2649    3.0943 C   0  0  0  0  0  0  0  0  0  0  0  0
   -2.5783    0.2210    2.3509 H   0  0  0  0  0  0  0  0  0  0  0  0
   -1.0751    3.3799    1.4082 C   0  0  0  0  0  0  0  0  0  0  0  0
   -1.4728    2.9801    2.3536 H   0  0  0  0  0  0  0  0  0  0  0  0
    0.2067    3.0726   -0.6497 C   0  0  0  0  0  0  0  0  0  0  0  0
    0.8135    2.4347   -1.3104 H   0  0  0  0  0  0  0  0  0  0  0  0
    2.7157    1.1924   -2.4616 C   0  0  0  0  0  0  0  0  0  0  0  0
    3.6598    1.4555   -1.9584 H   0  0  0  0  0  0  0  0  0  0  0  0
    6.1420   -0.8725   -0.0571 C   0  0  0  0  0  0  0  0  0  0  0  0
    6.9083   -1.5910   -0.3895 H   0  0  0  0  0  0  0  0  0  0  0  0
    1.1647    1.5313   -4.3075 C   0  0  0  0  0  0  0  0  0  0  0  0
    0.8855    2.0417   -5.2427 H   0  0  0  0  0  0  0  0  0  0  0  0
    2.3654    1.8509   -3.6531 C   0  0  0  0  0  0  0  0  0  0  0  0
    3.0358    2.6162   -4.0761 H   0  0  0  0  0  0  0  0  0  0  0  0
    1.2047   -4.7636    0.1192 C   0  0  0  0  0  0  0  0  0  0  0  0
    0.9700   -5.8306    0.2556 H   0  0  0  0  0  0  0  0  0  0  0  0
    0.6148    0.5241    3.5983 C   0  0  0  0  0  0  0  0  0  0  0  0
    1.6448    0.6882    3.2459 H   0  0  0  0  0  0  0  0  0  0  0  0
    1.8825   -2.9099   -1.3079 C   0  0  0  0  0  0  0  0  0  0  0  0
    2.1743   -2.5439   -2.3058 H   0  0  0  0  0  0  0  0  0  0  0  0
    0.3436    0.3066    4.9570 C   0  0  0  0  0  0  0  0  0  0  0  0
    1.1682    0.3113    5.6856 H   0  0  0  0  0  0  0  0  0  0  0  0
    5.5263    1.1560    1.1145 C   0  0  0  0  0  0  0  0  0  0  0  0
    5.8056    2.0440    1.7047 H   0  0  0  0  0  0  0  0  0  0  0  0
    1.1230   -3.8728    1.2031 C   0  0  0  0  0  0  0  0  0  0  0  0
    0.8271   -4.2436    2.1977 H   0  0  0  0  0  0  0  0  0  0  0  0
    4.7931   -1.0896   -0.3782 C   0  0  0  0  0  0  0  0  0  0  0  0
    4.5189   -1.9871   -0.9566 H   0  0  0  0  0  0  0  0  0  0  0  0
   -1.3041    4.7206    1.0621 C   0  0  0  0  0  0  0  0  0  0  0  0
   -1.8837    5.3679    1.7374 H   0  0  0  0  0  0  0  0  0  0  0  0
   -0.7883    5.2350   -0.1383 C   0  0  0  0  0  0  0  0  0  0  0  0
   -0.9698    6.2865   -0.4080 H   0  0  0  0  0  0  0  0  0  0  0  0
    1.5919   -4.2757   -1.1392 C   0  0  0  0  0  0  0  0  0  0  0  0
    1.6627   -4.9627   -1.9976 H   0  0  0  0  0  0  0  0  0  0  0  0
   -0.0310    4.4117   -0.9883 C   0  0  0  0  0  0  0  0  0  0  0  0
    0.3870    4.8122   -1.9241 H   0  0  0  0  0  0  0  0  0  0  0  0
   -0.9740    0.0750    5.3856 C   0  0  0  0  0  0  0  0  0  0  0  0
   -1.1814   -0.0967    6.4528 H   0  0  0  0  0  0  0  0  0  0  0  0
   -2.0269    0.0519    4.4556 C   0  0  0  0  0  0  0  0  0  0  0  0
   -3.0567   -0.1416    4.7923 H   0  0  0  0  0  0  0  0  0  0  0  0
    0.3311    0.5406   -3.7621 C   0  0  0  0  0  0  0  0  0  0  0  0
   -0.6052    0.2670   -4.2757 H   0  0  0  0  0  0  0  0  0  0  0  0
    2.2332   -0.4358   -0.4139 B   0  0  0  0  0  0  0  0  0  0  0  0
  1 16  1  0  0  0  0
  2  1  1  0  0  0  0
  3  1  1  0  0  0  0
  4 59  1  0  0  0  0
  5  6  1  0  0  0  0
  5 39  1  0  0  0  0
  7  1  1  0  0  0  0
  7 19  1  0  0  0  0
  8  5  2  0  0  0  0
  9 10  1  0  0  0  0
  9  4  2  0  0  0  0
 11 41  1  0  0  0  0
 11 12  1  0  0  0  0
 13 11  2  0  0  0  0
 14 15  1  0  0  0  0
 14 39  2  0  0  0  0
 16 17  2  0  0  0  0
 16 33  1  0  0  0  0
 17 55  1  0  0  0  0
 18 17  1  0  0  0  0
 19 20  1  0  0  0  0
 21  7  2  0  0  0  0
 22 21  1  0  0  0  0
 23 24  1  0  0  0  0
 23  4  1  0  0  0  0
 25 14  1  0  0  0  0
 26 25  1  0  0  0  0
 27 57  2  0  0  0  0
 27 29  1  0  0  0  0
 28 27  1  0  0  0  0
 29 23  2  0  0  0  0
 30 29  1  0  0  0  0
 31 32  1  0  0  0  0
 31 41  2  0  0  0  0
 33 37  2  0  0  0  0
 34 33  1  0  0  0  0
 35 49  2  0  0  0  0
 35 13  1  0  0  0  0
 36 35  1  0  0  0  0
 37 53  1  0  0  0  0
 37 38  1  0  0  0  0
 39 40  1  0  0  0  0
 41 42  1  0  0  0  0
 43 25  2  0  0  0  0
 43  8  1  0  0  0  0
 44 43  1  0  0  0  0
 45 19  2  0  0  0  0
 45 46  1  0  0  0  0
 47 45  1  0  0  0  0
 48 47  1  0  0  0  0
 49 31  1  0  0  0  0
 50 49  1  0  0  0  0
 51 21  1  0  0  0  0
 51 47  2  0  0  0  0
 52 51  1  0  0  0  0
 53 54  1  0  0  0  0
 55 56  1  0  0  0  0
 55 53  2  0  0  0  0
 57  9  1  0  0  0  0
 58 57  1  0  0  0  0
 59 13  1  0  0  0  0
 59  8  1  0  0  0  0
 59  2  1  0  0  0  0
M  END
