11
q = -1.0, confidence = 0.08

 59 63  0  0  0  0  0  0  0  0999 V2000
    0.8693   -1.0021    1.1851 P   0  0  0  0  0  4  0  0  0  0  0  0
   -1.1697    1.5335   -3.0360 F   0  0  0  0  0  0  0  0  0  0  0  0
   -2.8293   -2.2219   -0.7647 F   0  0  0  0  0  0  0  0  0  0  0  0
   -0.9176    2.5049    1.6385 F   0  0  0  0  0  0  0  0  0  0  0  0
    1.0310    0.2703   -2.1041 F   0  0  0  0  0  0  0  0  0  0  0  0
   -2.3101   -0.4054    2.6263 F   0  0  0  0  0  0  0  0  0  0  0  0
    1.7130   -1.7248   -3.7577 F   0  0  0  0  0  0  0  0  0  0  0  0
   -0.4450    5.0779    1.0624 F   0  0  0  0  0  0  0  0  0  0  0  0
    0.1850   -3.9981   -3.8976 F   0  0  0  0  0  0  0  0  0  0  0  0
   -4.8580   -0.2846    3.3768 F   0  0  0  0  0  0  0  0  0  0  0  0
    2.1689   -0.8042    0.3202 O   0  0  0  0  0  1  0  0  0  0  0  0
   -0.7126    4.1106   -3.5776 F   0  0  0  0  0  0  0  0  0  0  0  0
   -0.2958    0.0195    0.9450 O   0  0  0  0  0  0  0  0  0  0  0  0
   -3.5846    0.8555   -1.8059 F   0  0  0  0  0  0  0  0  0  0  0  0
   -2.0983   -4.1970   -2.3911 F   0  0  0  0  0  0  0  0  0  0  0  0
   -0.3384    5.9217   -1.5527 F   0  0  0  0  0  0  0  0  0  0  0  0
   -6.8300    0.3965    1.5904 F   0  0  0  0  0  0  0  0  0  0  0  0
   -6.1622    0.9632   -1.0148 F   0  0  0  0  0  0  0  0  0  0  0  0
   -0.9747    2.3506   -1.9863 C   0  0  0  0  0  0  0  0  0  0  0  0
   -1.0012    1.8623   -0.6684 C   0  0  0  0  0  0  0  0  0  0  0  0
    0.3279   -2.7004    0.8826 C   0  0  0  0  0  0  0  0  0  0  0  0
   -0.8505    2.8419    0.3292 C   0  0  0  0  0  0  0  0  0  0  0  0
    0.5797   -1.8182   -3.0359 C   0  0  0  0  0  0  0  0  0  0  0  0
    0.1942   -0.7897   -2.1648 C   0  0  0  0  0  0  0  0  0  0  0  0
   -3.2052   -0.0346    1.6735 C   0  0  0  0  0  0  0  0  0  0  0  0
   -1.7231   -2.0150   -1.5029 C   0  0  0  0  0  0  0  0  0  0  0  0
    1.3296   -0.7675    2.9179 C   0  0  0  0  0  0  0  0  0  0  0  0
    0.6035   -4.8301   -0.2544 C   0  0  0  0  0  0  0  0  0  0  0  0
    1.1687   -5.4780   -0.9410 H   0  0  0  0  0  0  0  0  0  0  0  0
   -0.6089    4.1998    0.0646 C   0  0  0  0  0  0  0  0  0  0  0  0
   -0.9662   -0.8366   -1.3703 C   0  0  0  0  0  0  0  0  0  0  0  0
   -3.8590    0.5892   -0.5126 C   0  0  0  0  0  0  0  0  0  0  0  0
   -0.1964   -2.9830   -3.1161 C   0  0  0  0  0  0  0  0  0  0  0  0
   -1.3666   -3.0765   -2.3519 C   0  0  0  0  0  0  0  0  0  0  0  0
   -0.5563    4.6332   -1.2691 C   0  0  0  0  0  0  0  0  0  0  0  0
   -2.8091    0.2549    0.3607 C   0  0  0  0  0  0  0  0  0  0  0  0
    1.0728   -3.5401    0.0312 C   0  0  0  0  0  0  0  0  0  0  0  0
    1.9968   -3.1595   -0.4262 H   0  0  0  0  0  0  0  0  0  0  0  0
   -4.5426    0.0068    2.1069 C   0  0  0  0  0  0  0  0  0  0  0  0
   -0.7407    3.7015   -2.3026 C   0  0  0  0  0  0  0  0  0  0  0  0
   -5.5523    0.3521    1.1977 C   0  0  0  0  0  0  0  0  0  0  0  0
   -0.8721   -3.1577    1.4666 C   0  0  0  0  0  0  0  0  0  0  0  0
   -1.4567   -2.4920    2.1185 H   0  0  0  0  0  0  0  0  0  0  0  0
   -1.3313   -4.4483    1.1743 C   0  0  0  0  0  0  0  0  0  0  0  0
   -2.2780   -4.8002    1.6100 H   0  0  0  0  0  0  0  0  0  0  0  0
    1.0249    0.2971    5.0775 C   0  0  0  0  0  0  0  0  0  0  0  0
    0.4532    0.9676    5.7364 H   0  0  0  0  0  0  0  0  0  0  0  0
    0.5919    0.0876    3.7591 C   0  0  0  0  0  0  0  0  0  0  0  0
   -0.3067    0.5854    3.3702 H   0  0  0  0  0  0  0  0  0  0  0  0
   -0.5994   -5.2813    0.3115 C   0  0  0  0  0  0  0  0  0  0  0  0
   -0.9753   -6.2867    0.0701 H   0  0  0  0  0  0  0  0  0  0  0  0
    2.4928   -1.4096    3.3925 C   0  0  0  0  0  0  0  0  0  0  0  0
    3.0702   -2.0694    2.7269 H   0  0  0  0  0  0  0  0  0  0  0  0
   -5.2080    0.6430   -0.1324 C   0  0  0  0  0  0  0  0  0  0  0  0
    2.1813   -0.3411    5.5530 C   0  0  0  0  0  0  0  0  0  0  0  0
    2.5157   -0.1726    6.5879 H   0  0  0  0  0  0  0  0  0  0  0  0
    2.9143   -1.1962    4.7113 C   0  0  0  0  0  0  0  0  0  0  0  0
    3.8200   -1.6966    5.0855 H   0  0  0  0  0  0  0  0  0  0  0  0
   -1.2761    0.3006   -0.2242 B   0  0  0  0  0  0  0  0  0  0  0  0
  1 27  1  0  0  0  0
  2 19  1  0  0  0  0
  7 23  1  0  0  0  0
  9 33  1  0  0  0  0
 11  1  1  0  0  0  0
 12 40  1  0  0  0  0
 13  1  1  0  0  0  0
 14 32  1  0  0  0  0
 15 34  1  0  0  0  0
 16 35  1  0  0  0  0
 18 54  1  0  0  0  0
 19 20  1  0  0  0  0
 20 59  1  0  0  0  0
 20 22  2  0  0  0  0
 21  1  1  0  0  0  0
 21 42  1  0  0  0  0
 22  4  1  0  0  0  0
 23 24  1  0  0  0  0
 24  5  1  0  0  0  0
 24 31  2  0  0  0  0
 25 39  1  0  0  0  0
 25  6  1  0  0  0  0
 26 31  1  0  0  0  0
 26  3  1  0  0  0  0
 27 52  2  0  0  0  0
 27 48  1  0  0  0  0
 28 37  1  0  0  0  0
 28 50  2  0  0  0  0
 29 28  1  0  0  0  0
 30 22  1  0  0  0  0
 30  8  1  0  0  0  0
 31 59  1  0  0  0  0
 32 54  2  0  0  0  0
 32 36  1  0  0  0  0
 33 23  2  0  0  0  0
 33 34  1  0  0  0  0
 34 26  2  0  0  0  0
 35 30  2  0  0  0  0
 36 25  2  0  0  0  0
 37 21  2  0  0  0  0
 38 37  1  0  0  0  0
 39 10  1  0  0  0  0
 40 19  2  0  0  0  0
 40 35  1  0  0  0  0
 41 17  1  0  0  0  0
 41 39  2  0  0  0  0
 42 43  1  0  0  0  0
 44 42  2  0  0  0  0
 44 45  1  0  0  0  0
 46 55  1  0  0  0  0
 46 47  1  0  0  0  0
 48 46  2  0  0  0  0
 49 48  1  0  0  0  0
 50 44  1  0  0  0  0
 51 50  1  0  0  0  0
 52 57  1  0  0  0  0
 53 52  1  0  0  0  0
 54 41  1  0  0  0  0
 55 56  1  0  0  0  0
 57 58  1  0  0  0  0
 57 55  2  0  0  0  0
 59 36  1  0  0  0  0
 59 13  1  0  0  0  0
M  END
