11
q = -1.0, confidence = 0.0

 20 20  0  0  0  0  0  0  0  0999 V2000
   -5.8967   -2.0425    0.4358 C   0  0  0  0  0  0  0  0  0  0  0  0
   -7.1009   -1.9979    0.6276 O   0  0  0  0  0  0  0  0  0  0  0  0
   -5.2080   -3.2145    0.4074 O   0  0  0  0  0  0  0  0  0  0  0  0
   -5.8831   -3.9079    0.5684 H   0  0  0  0  0  0  0  0  0  0  0  0
   -0.6864    0.6460   -1.2219 O   0  5  0  0  0  0  0  0  0  0  0  0
   -3.3342    3.8323    0.0832 O   0  0  0  0  0  0  0  0  0  0  0  0
   -1.6119    2.9260   -1.0030 O   0  0  0  0  0  0  0  0  0  0  0  0
   -1.2619    1.9811   -1.2565 H   0  0  0  0  0  0  0  0  0  0  0  0
   -4.8350    1.5556    0.0248 C   0  0  0  0  0  0  0  0  0  0  0  0
   -5.2654    2.5659    0.0720 H   0  0  0  0  0  0  0  0  0  0  0  0
   -0.8948   -1.1457    0.1001 O   0  0  0  0  0  0  0  0  0  0  0  0
   -1.3759   -0.1086   -0.4698 C   0  0  0  0  0  0  0  0  0  0  0  0
   -5.0278   -0.8516    0.2098 C   0  0  0  0  0  0  0  0  0  0  0  0
   -3.4457    1.4692   -0.2226 C   0  0  0  0  0  0  0  0  0  0  0  0
   -2.8422    0.1761   -0.2339 C   0  0  0  0  0  0  0  0  0  0  0  0
   -3.6441   -0.9589    0.0064 C   0  0  0  0  0  0  0  0  0  0  0  0
   -3.1562   -1.9417    0.0323 H   0  0  0  0  0  0  0  0  0  0  0  0
   -2.7733    2.8421   -0.3622 C   0  0  0  0  0  0  0  0  0  0  0  0
   -5.6253    0.4242    0.2163 C   0  0  0  0  0  0  0  0  0  0  0  0
   -6.7091    0.4999    0.3873 H   0  0  0  0  0  0  0  0  0  0  0  0
  1  2  2  0  0  0  0
  3  1  1  0  0  0  0
  3  4  1  0  0  0  0
  5 12  1  0  0  0  0
  7 18  1  0  0  0  0
  8  7  1  0  0  0  0
  9 10  1  0  0  0  0
  9 19  1  0  0  0  0
 12 15  1  0  0  0  0
 12 11  2  0  0  0  0
 13 19  2  0  0  0  0
 13  1  1  0  0  0  0
 14  9  2  0  0  0  0
 15 14  1  0  0  0  0
 15 16  2  0  0  0  0
 16 17  1  0  0  0  0
 16 13  1  0  0  0  0
 18 14  1  0  0  0  0
 18  6  2  0  0  0  0
 19 20  1  0  0  0  0
M  CHG  1   5  -1
M  END
