2
q = -1.0, confidence = 0.008

 29 30  0  0  0  0  0  0  0  0999 V2000
    0.3334    3.1367   -1.7386 P   0  0  0  0  0  0  0  0  0  0  0  0
    2.6518    0.5674   -0.8478 O   0  5  0  0  0  0  0  0  0  0  0  0
    3.2616    1.6528   -2.7297 O   0  0  0  0  0  0  0  0  0  0  0  0
    2.3962    1.2230   -1.9836 C   0  0  0  0  0  0  0  0  0  0  0  0
    0.9030    1.3947   -2.2113 C   0  0  0  0  0  0  0  0  0  0  0  0
    0.3517    0.6308   -1.6291 H   0  0  0  0  0  0  0  0  0  0  0  0
    0.6991    1.2804   -3.2949 H   0  0  0  0  0  0  0  0  0  0  0  0
    1.1247    3.3099   -0.0697 C   0  0  0  0  0  0  0  0  0  0  0  0
    0.6668    2.6448    1.0862 C   0  0  0  0  0  0  0  0  0  0  0  0
   -0.1904    1.9600    1.0182 H   0  0  0  0  0  0  0  0  0  0  0  0
    1.2951    2.8519    2.3213 C   0  0  0  0  0  0  0  0  0  0  0  0
    0.9233    2.3261    3.2143 H   0  0  0  0  0  0  0  0  0  0  0  0
    2.4076    3.7068    2.4134 C   0  0  0  0  0  0  0  0  0  0  0  0
    2.9018    3.8670    3.3840 H   0  0  0  0  0  0  0  0  0  0  0  0
    2.8880    4.3518    1.2632 C   0  0  0  0  0  0  0  0  0  0  0  0
    3.7614    5.0186    1.3271 H   0  0  0  0  0  0  0  0  0  0  0  0
    2.2432    4.1620    0.0295 C   0  0  0  0  0  0  0  0  0  0  0  0
    2.6078    4.6814   -0.8708 H   0  0  0  0  0  0  0  0  0  0  0  0
   -1.4209    2.7891   -1.2623 C   0  0  0  0  0  0  0  0  0  0  0  0
   -2.0649    3.6440   -0.3376 C   0  0  0  0  0  0  0  0  0  0  0  0
   -1.4940    4.4517    0.1467 H   0  0  0  0  0  0  0  0  0  0  0  0
   -3.4167    3.4635   -0.0126 C   0  0  0  0  0  0  0  0  0  0  0  0
   -3.8926    4.1312    0.7224 H   0  0  0  0  0  0  0  0  0  0  0  0
   -4.1615    2.4388   -0.6208 C   0  0  0  0  0  0  0  0  0  0  0  0
   -5.2202    2.2861   -0.3641 H   0  0  0  0  0  0  0  0  0  0  0  0
   -3.5424    1.6002   -1.5596 C   0  0  0  0  0  0  0  0  0  0  0  0
   -4.1169    0.7899   -2.0315 H   0  0  0  0  0  0  0  0  0  0  0  0
   -2.1845    1.7719   -1.8757 C   0  0  0  0  0  0  0  0  0  0  0  0
   -1.7214    1.0960   -2.6104 H   0  0  0  0  0  0  0  0  0  0  0  0
  1 19  1  0  0  0  0
  1  8  1  0  0  0  0
  3  4  2  0  0  0  0
  4  2  1  0  0  0  0
  5  4  1  0  0  0  0
  5  1  1  0  0  0  0
  5  6  1  0  0  0  0
  7  5  1  0  0  0  0
  8 17  2  0  0  0  0
  8  9  1  0  0  0  0
  9 11  2  0  0  0  0
 10  9  1  0  0  0  0
 11 13  1  0  0  0  0
 11 12  1  0  0  0  0
 13 14  1  0  0  0  0
 15 16  1  0  0  0  0
 15 13  2  0  0  0  0
 17 15  1  0  0  0  0
 18 17  1  0  0  0  0
 19 20  1  0  0  0  0
 20 22  2  0  0  0  0
 20 21  1  0  0  0  0
 22 23  1  0  0  0  0
 24 25  1  0  0  0  0
 24 22  1  0  0  0  0
 26 24  2  0  0  0  0
 27 26  1  0  0  0  0
 28 26  1  0  0  0  0
 28 19  2  0  0  0  0
 29 28  1  0  0  0  0
M  CHG  1   2  -1
M  END
