2
q = -1.0, confidence = 0.018

 12 12  0  0  0  0  0  0  0  0999 V2000
   -3.7997   -4.0838   -0.1763 F   0  0  0  0  0  0  0  0  0  0  0  0
   -1.9965   -2.0927   -0.2251 O   0  5  0  0  0  0  0  0  0  0  0  0
   -3.2701   -1.7785   -0.0702 C   0  0  0  0  0  0  0  0  0  0  0  0
   -5.6126   -2.5856    0.1153 C   0  0  0  0  0  0  0  0  0  0  0  0
   -6.2930   -3.4493    0.1255 H   0  0  0  0  0  0  0  0  0  0  0  0
   -2.9397    0.5797    0.0589 F   0  0  0  0  0  0  0  0  0  0  0  0
   -3.8068   -0.4693    0.0767 C   0  0  0  0  0  0  0  0  0  0  0  0
   -6.0825   -1.2683    0.2568 C   0  0  0  0  0  0  0  0  0  0  0  0
   -7.1572   -1.0740    0.3819 H   0  0  0  0  0  0  0  0  0  0  0  0
   -4.2459   -2.8200   -0.0426 C   0  0  0  0  0  0  0  0  0  0  0  0
   -5.1689   -0.2035    0.2369 C   0  0  0  0  0  0  0  0  0  0  0  0
   -5.4884    0.8433    0.3432 H   0  0  0  0  0  0  0  0  0  0  0  0
  1 10  1  0  0  0  0
  2  3  1  0  0  0  0
  3 10  2  0  0  0  0
  3  7  1  0  0  0  0
  4  5  1  0  0  0  0
  4  8  2  0  0  0  0
  6  7  1  0  0  0  0
  7 11  2  0  0  0  0
  8  9  1  0  0  0  0
 10  4  1  0  0  0  0
 11  8  1  0  0  0  0
 11 12  1  0  0  0  0
M  CHG  1   2  -1
M  END
