1
q = 0.0, confidence = 0.998

 22 22  0  0  0  0  0  0  0  0999 V2000
    0.6900    2.9796    0.0946 O   0  0  0  0  0  1  0  0  0  0  0  0
    3.4467   -3.4140    0.1212 F   0  0  0  0  0  0  0  0  0  0  0  0
    1.6084    3.3998   -0.7405 N   0  0  0  0  0  0  0  0  0  0  0  0
    5.5404   -2.8477    0.3545 F   0  0  0  0  0  0  0  0  0  0  0  0
    3.9277   -1.1111    0.3275 C   0  0  0  0  0  0  0  0  0  0  0  0
    2.7085    2.7379   -1.0485 C   0  0  0  0  0  3  0  0  0  0  0  0
    3.3363    3.2179   -1.8126 H   0  0  0  0  0  0  0  0  0  0  0  0
    3.0994    1.4427   -0.5283 C   0  0  0  0  0  0  0  0  0  0  0  0
    4.1767   -2.7172    2.0584 F   0  0  0  0  0  0  0  0  0  0  0  0
    4.2884   -2.5258    0.7295 C   0  0  0  0  0  0  0  0  0  0  0  0
    4.3886   -0.6025   -0.9014 C   0  0  0  0  0  0  0  0  0  0  0  0
    5.0659   -1.2038   -1.5243 H   0  0  0  0  0  0  0  0  0  0  0  0
    3.0954   -0.3315    1.1476 C   0  0  0  0  0  0  0  0  0  0  0  0
    2.7760   -0.7182    2.1253 H   0  0  0  0  0  0  0  0  0  0  0  0
    3.9916    0.6690   -1.3161 C   0  0  0  0  0  0  0  0  0  0  0  0
    4.3612    1.0694   -2.2723 H   0  0  0  0  0  0  0  0  0  0  0  0
    2.6639    0.9294    0.7233 C   0  0  0  0  0  0  0  0  0  0  0  0
    2.0240    1.5341    1.3783 H   0  0  0  0  0  0  0  0  0  0  0  0
    1.3166    4.7251   -1.3062 C   0  0  0  0  0  0  0  0  0  0  0  0
    0.3698    4.6561   -1.8749 H   0  0  0  0  0  0  0  0  0  0  0  0
    2.1420    5.0628   -1.9568 H   0  0  0  0  0  0  0  0  0  0  0  0
    1.1772    5.4277   -0.4631 H   0  0  0  0  0  0  0  0  0  0  0  0
  2 10  1  0  0  0  0
  3  1  1  0  0  0  0
  4 10  1  0  0  0  0
  5 10  1  0  0  0  0
  5 13  1  0  0  0  0
  6  3  1  0  0  0  0
  6  8  1  0  0  0  0
  7  6  1  0  0  0  0
  8 17  1  0  0  0  0
 10  9  1  0  0  0  0
 11  5  2  0  0  0  0
 12 11  1  0  0  0  0
 13 14  1  0  0  0  0
 15 11  1  0  0  0  0
 15  8  2  0  0  0  0
 16 15  1  0  0  0  0
 17 13  2  0  0  0  0
 17 18  1  0  0  0  0
 19  3  1  0  0  0  0
 19 22  1  0  0  0  0
 20 19  1  0  0  0  0
 21 19  1  0  0  0  0
M  END
