1
q = -1.0, confidence = 0.006

 14 13  0  0  0  0  0  0  0  0999 V2000
    1.7351   -0.6334   -0.6484 O   0  0  0  0  0  1  0  0  0  0  0  0
    4.4965   -0.4782    0.2923 O   0  0  0  0  0  0  0  0  0  0  0  0
    3.9924    0.2339   -0.8506 C   0  0  0  0  0  0  0  0  0  0  0  0
    4.8047    0.3695   -1.5941 H   0  0  0  0  0  0  0  0  0  0  0  0
    3.6575    1.2143   -0.4604 H   0  0  0  0  0  0  0  0  0  0  0  0
    5.6772   -1.8540   -1.0790 O   0  0  0  0  0  0  0  0  0  0  0  0
    5.3249   -1.5289    0.0389 C   0  0  0  0  0  0  0  0  0  0  0  0
    5.7107   -2.2161    1.3263 C   0  0  0  0  0  0  0  0  0  0  0  0
    6.4994   -2.9619    1.1280 H   0  0  0  0  0  0  0  0  0  0  0  0
    4.8200   -2.7221    1.7517 H   0  0  0  0  0  0  0  0  0  0  0  0
    6.0510   -1.4762    2.0761 H   0  0  0  0  0  0  0  0  0  0  0  0
    2.8308   -0.4885   -1.5246 C   0  0  0  0  0  0  0  0  0  0  0  0
    2.5551    0.1007   -2.4287 H   0  0  0  0  0  0  0  0  0  0  0  0
    3.1706   -1.4951   -1.8531 H   0  0  0  0  0  0  0  0  0  0  0  0
  3  5  1  0  0  0  0
  3  2  1  0  0  0  0
  4  3  1  0  0  0  0
  6  7  2  0  0  0  0
  7  2  1  0  0  0  0
  7  8  1  0  0  0  0
  8 10  1  0  0  0  0
  8 11  1  0  0  0  0
  9  8  1  0  0  0  0
 12  3  1  0  0  0  0
 12  1  1  0  0  0  0
 13 12  1  0  0  0  0
 14 12  1  0  0  0  0
M  END
