1
q = -1.0, confidence = 0.002

 36 40  0  0  1  0  0  0  0  0999 V2000
    0.4788    2.2645   -0.1448 O   0  0  0  0  0  1  0  0  0  0  0  0
    2.6313   -0.3311    1.0341 C   0  0  1  0  0  0  0  0  0  0  0  0
    4.1786   -0.1378    0.4552 C   0  0  2  0  0  0  0  0  0  0  0  0
    2.2436    0.4208    2.2925 C   0  0  0  0  0  0  0  0  0  0  0  0
    1.1820    0.2091    2.5172 H   0  0  0  0  0  0  0  0  0  0  0  0
    2.8573    0.0999    3.1536 H   0  0  0  0  0  0  0  0  0  0  0  0
    2.3528    1.5141    2.1655 H   0  0  0  0  0  0  0  0  0  0  0  0
    5.1186    0.7858    1.2064 C   0  0  0  0  0  0  0  0  0  0  0  0
    6.0449    0.9171    0.6179 H   0  0  0  0  0  0  0  0  0  0  0  0
    4.6694    1.7823    1.3794 H   0  0  0  0  0  0  0  0  0  0  0  0
    5.3937    0.3557    2.1864 H   0  0  0  0  0  0  0  0  0  0  0  0
    1.6152    2.7745   -0.3306 C   0  0  2  0  0  3  0  0  0  0  0  0
    1.6999    4.2721   -0.4682 C   0  0  0  0  0  0  0  0  0  0  0  0
    2.7384    4.6504   -0.4807 H   0  0  0  0  0  0  0  0  0  0  0  0
    1.1967    4.5730   -1.4093 H   0  0  0  0  0  0  0  0  0  0  0  0
    1.1461    4.7466    0.3644 H   0  0  0  0  0  0  0  0  0  0  0  0
    2.7507    2.0534   -0.4163 N   0  0  0  0  0  0  0  0  0  0  0  0
    3.5911    2.5894   -0.6455 H   0  0  0  0  0  0  0  0  0  0  0  0
    2.8549    0.5703   -0.4267 B   0  0  2  0  0  0  0  0  0  0  0  0
    1.4852   -0.5469   -0.2724 B   0  0  0  0  0  1  0  0  0  0  0  0
    2.0721   -1.9053    0.7321 B   0  0  2  0  0  0  0  0  0  0  0  0
    1.3460   -2.3965    1.5616 H   0  0  0  0  0  0  0  0  0  0  0  0
    3.7566   -1.6355    1.2021 B   0  0  1  0  0  0  0  0  0  0  0  0
    4.1878   -1.8333    2.3073 H   0  0  0  0  0  0  0  0  0  0  0  0
    4.1947   -0.2213   -1.2630 B   0  0  2  0  0  0  0  0  0  0  0  0
    4.9869    0.4953   -1.8258 H   0  0  0  0  0  0  0  0  0  0  0  0
    2.5078   -0.5266   -1.7574 B   0  0  2  0  0  0  0  0  0  0  0  0
    2.0803   -0.0739   -2.7919 H   0  0  0  0  0  0  0  0  0  0  0  0
    2.0221   -2.0778   -1.0412 B   0  0  1  0  0  0  0  0  0  0  0  0
    1.2298   -2.8043   -1.5909 H   0  0  0  0  0  0  0  0  0  0  0  0
    3.4009   -2.7420   -0.1217 B   0  0  0  0  0  2  0  0  0  0  0  0
    3.5951   -3.9230    0.0260 H   0  0  0  0  0  0  0  0  0  0  0  0
    4.7471   -1.5790   -0.2644 B   0  0  2  0  0  0  0  0  0  0  0  0
    5.9253   -1.8082   -0.1611 H   0  0  0  0  0  0  0  0  0  0  0  0
    3.6801   -1.8748   -1.6623 B   0  0  2  0  0  0  0  0  0  0  0  0
    4.0899   -2.4292   -2.6518 H   0  0  0  0  0  0  0  0  0  0  0  0
  2 23  1  0  0  0  0
  2  4  1  1  0  0  0
  3  2  1  0  0  0  0
  3  8  1  1  0  0  0
  4  5  1  0  0  0  0
  4  6  1  0  0  0  0
  7  4  1  0  0  0  0
  8 10  1  0  0  0  0
  8 11  1  0  0  0  0
  9  8  1  0  0  0  0
 12  1  1  6  0  0  0
 13 12  1  0  0  0  0
 13 16  1  0  0  0  0
 14 13  1  0  0  0  0
 15 13  1  0  0  0  0
 17 12  1  0  0  0  0
 18 17  1  0  0  0  0
 19 17  1  0  0  0  0
 19 20  1  1  0  0  0
 21  2  1  0  0  0  0
 21 23  1  0  0  0  0
 21 22  1  1  0  0  0
 23 24  1  1  0  0  0
 25 26  1  6  0  0  0
 25 19  1  0  0  0  0
 25 33  1  0  0  0  0
 25  3  1  0  0  0  0
 27 28  1  6  0  0  0
 27 35  1  0  0  0  0
 27 29  1  0  0  0  0
 27 19  1  0  0  0  0
 29 30  1  6  0  0  0
 29 21  1  0  0  0  0
 31 32  1  0  0  0  0
 31 23  1  0  0  0  0
 33 34  1  1  0  0  0
 33  3  1  0  0  0  0
 35 36  1  6  0  0  0
 35 29  1  0  0  0  0
 35 33  1  0  0  0  0
M  END
