1
q = -1.0, confidence = 0.016

 18 19  0  0  0  0  0  0  0  0999 V2000
   -0.9534    0.0349   -0.3242 O   0  5  0  0  0  0  0  0  0  0  0  0
   -1.8080    0.9819   -0.2372 C   0  0  0  0  0  0  0  0  0  0  0  0
   -0.9169    3.3346   -0.5722 O   0  0  0  0  0  0  0  0  0  0  0  0
   -1.7746    2.4896   -0.3109 C   0  0  0  0  0  0  0  0  0  0  0  0
   -4.1879    3.2964    0.0524 O   0  0  0  0  0  0  0  0  0  0  0  0
   -3.3031    2.4688   -0.0782 C   0  0  0  0  0  0  0  0  0  0  0  0
   -3.2257    0.9852   -0.1096 C   0  0  0  0  0  0  0  0  0  0  0  0
   -5.5861    0.3134    0.1797 C   0  0  0  0  0  0  0  0  0  0  0  0
   -5.8285    1.3784    0.3139 H   0  0  0  0  0  0  0  0  0  0  0  0
   -6.5738   -0.6758    0.2402 C   0  0  0  0  0  0  0  0  0  0  0  0
   -7.6202   -0.3922    0.4304 H   0  0  0  0  0  0  0  0  0  0  0  0
   -6.2358   -2.0284    0.0571 C   0  0  0  0  0  0  0  0  0  0  0  0
   -7.0168   -2.8025    0.1054 H   0  0  0  0  0  0  0  0  0  0  0  0
   -4.9006   -2.3928   -0.1937 C   0  0  0  0  0  0  0  0  0  0  0  0
   -4.6386   -3.4512   -0.3456 H   0  0  0  0  0  0  0  0  0  0  0  0
   -3.9047   -1.4124   -0.2544 C   0  0  0  0  0  0  0  0  0  0  0  0
   -2.8596   -1.6827   -0.4667 H   0  0  0  0  0  0  0  0  0  0  0  0
   -4.2340   -0.0450   -0.0614 C   0  0  0  0  0  0  0  0  0  0  0  0
  1  2  1  0  0  0  0
  2  7  2  0  0  0  0
  3  4  2  0  0  0  0
  4  2  1  0  0  0  0
  4  6  1  0  0  0  0
  6  5  2  0  0  0  0
  7  6  1  0  0  0  0
  7 18  1  0  0  0  0
  8 10  1  0  0  0  0
  8  9  1  0  0  0  0
 10 11  1  0  0  0  0
 12 13  1  0  0  0  0
 12 10  2  0  0  0  0
 14 12  1  0  0  0  0
 15 14  1  0  0  0  0
 16 14  2  0  0  0  0
 16 18  1  0  0  0  0
 17 16  1  0  0  0  0
 18  8  2  0  0  0  0
M  CHG  1   1  -1
M  END
