1
q = -1.0, confidence = 0.0

 19 18  0  0  1  0  0  0  0  0999 V2000
   -1.2047   -0.8894   -1.4832 O   0  0  0  0  0  1  0  0  0  0  0  0
   -2.0802    1.2402   -1.6185 O   0  0  0  0  0  0  0  0  0  0  0  0
   -1.0856    0.3748   -1.3570 C   0  0  1  0  0  3  0  0  0  0  0  0
    0.1258    0.8827   -0.7826 C   0  0  0  0  0  3  0  0  0  0  0  0
    0.2869    2.3519   -0.4842 C   0  0  0  0  0  0  0  0  0  0  0  0
    1.6172    2.6871    0.1598 C   0  0  0  0  0  0  0  0  0  0  0  0
   -3.4140    0.7232   -1.8542 C   0  0  0  0  0  0  0  0  0  0  0  0
   -4.3696    1.3009   -0.8268 C   0  0  0  0  0  0  0  0  0  0  0  0
    2.6609    2.3563   -0.6501 F   0  0  0  0  0  0  0  0  0  0  0  0
    1.8178    2.0345    1.3350 F   0  0  0  0  0  0  0  0  0  0  0  0
    1.7147    4.0117    0.4158 F   0  0  0  0  0  0  0  0  0  0  0  0
    1.0248    0.3893   -1.1878 H   0  0  0  0  0  0  0  0  0  0  0  0
    0.2395    2.9515   -1.4192 H   0  0  0  0  0  0  0  0  0  0  0  0
   -0.5149    2.7347    0.1765 H   0  0  0  0  0  0  0  0  0  0  0  0
   -3.6881    1.0331   -2.8838 H   0  0  0  0  0  0  0  0  0  0  0  0
   -3.3753   -0.3833   -1.8190 H   0  0  0  0  0  0  0  0  0  0  0  0
   -4.1217    0.9494    0.1933 H   0  0  0  0  0  0  0  0  0  0  0  0
   -4.3437    2.4086   -0.8372 H   0  0  0  0  0  0  0  0  0  0  0  0
   -5.4050    0.9771   -1.0554 H   0  0  0  0  0  0  0  0  0  0  0  0
  2  3  1  0  0  0  0
  3  1  1  1  0  0  0
  3  4  1  0  0  0  0
  4  5  1  0  0  0  0
  5  6  1  0  0  0  0
  5 14  1  0  0  0  0
  6 11  1  0  0  0  0
  6 10  1  0  0  0  0
  7 16  1  0  0  0  0
  7  2  1  0  0  0  0
  7  8  1  0  0  0  0
  8 17  1  0  0  0  0
  9  6  1  0  0  0  0
 12  4  1  0  0  0  0
 13  5  1  0  0  0  0
 15  7  1  0  0  0  0
 18  8  1  0  0  0  0
 19  8  1  0  0  0  0
M  END
