8
q = -1.0, confidence = 0.006

 19 18  0  0  0  0  0  0  0  0999 V2000
    1.9537   -4.0187   -0.2752 C   0  0  0  0  0  0  0  0  0  0  0  0
    1.8647   -2.5475   -0.6165 C   0  0  0  0  0  0  0  0  0  0  0  0
    2.9804   -1.8230   -1.1156 C   0  0  0  0  0  0  0  0  0  0  0  0
    2.8425   -0.4495   -1.4953 C   0  0  0  0  0  0  0  0  0  0  0  0
    3.9943    0.3167   -2.0902 C   0  0  0  0  0  0  0  0  0  0  0  0
    4.3352   -2.4650   -1.2384 C   0  0  0  0  0  0  0  0  0  0  0  0
    4.5232   -3.5602   -2.2736 C   0  0  0  0  0  0  0  0  0  0  0  0
    0.7211   -2.0210   -0.3935 O   0  5  0  0  0  0  0  0  0  0  0  0
    1.7525    0.2012   -1.3571 O   0  0  0  0  0  0  0  0  0  0  0  0
    5.2885   -2.0510   -0.5843 O   0  0  0  0  0  0  0  0  0  0  0  0
    1.4586   -4.6183   -1.0680 H   0  0  0  0  0  0  0  0  0  0  0  0
    2.9886   -4.3832   -0.1466 H   0  0  0  0  0  0  0  0  0  0  0  0
    1.3858   -4.1880    0.6595 H   0  0  0  0  0  0  0  0  0  0  0  0
    3.5928    1.1189   -2.7366 H   0  0  0  0  0  0  0  0  0  0  0  0
    4.5573    0.7984   -1.2577 H   0  0  0  0  0  0  0  0  0  0  0  0
    4.7073   -0.3146   -2.6516 H   0  0  0  0  0  0  0  0  0  0  0  0
    4.6739   -3.0550   -3.2530 H   0  0  0  0  0  0  0  0  0  0  0  0
    3.6361   -4.2096   -2.3925 H   0  0  0  0  0  0  0  0  0  0  0  0
    5.4284   -4.1553   -2.0494 H   0  0  0  0  0  0  0  0  0  0  0  0
  1 12  1  0  0  0  0
  1 13  1  0  0  0  0
  2  8  1  0  0  0  0
  2  1  1  0  0  0  0
  3  2  2  0  0  0  0
  4  9  2  0  0  0  0
  4  3  1  0  0  0  0
  5  4  1  0  0  0  0
  5 15  1  0  0  0  0
  6  3  1  0  0  0  0
  6 10  2  0  0  0  0
  7 19  1  0  0  0  0
  7  6  1  0  0  0  0
 11  1  1  0  0  0  0
 14  5  1  0  0  0  0
 16  5  1  0  0  0  0
 17  7  1  0  0  0  0
 18  7  1  0  0  0  0
M  CHG  1   8  -1
M  END
