1
q = 0.0, confidence = 0.832

 36 37  0  0  1  0  0  0  0  0999 V2000
   -1.4841   -2.6838    0.1710 O   0  0  0  0  0  1  0  0  0  0  0  0
   -0.9349   -3.8918   -0.2403 C   0  0  0  0  0  0  0  0  0  0  0  0
   -1.6663   -4.4416   -0.8773 H   0  0  0  0  0  0  0  0  0  0  0  0
   -0.7276   -4.5313    0.6516 H   0  0  0  0  0  0  0  0  0  0  0  0
    0.3536   -3.6488   -1.0329 C   0  0  0  0  0  0  0  0  0  0  0  0
    0.0905   -3.0169   -1.9077 H   0  0  0  0  0  0  0  0  0  0  0  0
    0.7419   -4.6151   -1.4234 H   0  0  0  0  0  0  0  0  0  0  0  0
    1.4160   -2.9313   -0.1938 C   0  0  0  0  0  0  0  0  0  0  0  0
    0.9350   -2.1308    0.4082 H   0  0  0  0  0  0  0  0  0  0  0  0
    1.8873   -3.6362    0.5265 H   0  0  0  0  0  0  0  0  0  0  0  0
    2.4896   -2.3049   -1.0797 C   0  0  0  0  0  0  0  0  0  0  0  0
    2.9781   -3.0627   -1.7249 H   0  0  0  0  0  0  0  0  0  0  0  0
    2.0335   -1.5450   -1.7450 H   0  0  0  0  0  0  0  0  0  0  0  0
    3.5711   -1.6619   -0.2983 N   0  0  0  0  0  0  0  0  0  0  0  0
    3.5395   -0.3125    0.0168 C   0  0  1  0  0  3  0  0  0  0  0  0
    4.6345    0.2106    0.7780 C   0  0  0  0  0  0  0  0  0  0  0  0
    4.6069    1.2769    1.0338 H   0  0  0  0  0  0  0  0  0  0  0  0
    5.6622   -0.6073    1.2014 C   0  0  0  0  0  0  0  0  0  0  0  0
    6.4808   -0.1861    1.8035 H   0  0  0  0  0  0  0  0  0  0  0  0
    5.6491   -1.9885    0.8784 C   0  0  0  0  0  0  0  0  0  0  0  0
    6.4453   -2.6713    1.2004 H   0  0  0  0  0  0  0  0  0  0  0  0
    4.5906   -2.4670    0.1400 C   0  0  0  0  0  0  0  0  0  0  0  0
    4.4986   -3.5224   -0.1507 H   0  0  0  0  0  0  0  0  0  0  0  0
    2.5232    0.4602   -0.3945 N   0  0  0  0  0  0  0  0  0  0  0  0
    1.5837    0.0753   -0.7134 H   0  0  0  0  0  0  0  0  0  0  0  0
    2.5653    1.8869   -0.2848 C   0  0  0  0  0  0  0  0  0  0  0  0
    3.4205    2.6259   -1.1243 C   0  0  0  0  0  0  0  0  0  0  0  0
    4.0540    2.0984   -1.8532 H   0  0  0  0  0  0  0  0  0  0  0  0
    3.4417    4.0246   -1.0328 C   0  0  0  0  0  0  0  0  0  0  0  0
    4.1065    4.6038   -1.6910 H   0  0  0  0  0  0  0  0  0  0  0  0
    2.6037    4.6833   -0.1177 C   0  0  0  0  0  0  0  0  0  0  0  0
    2.6164    5.7817   -0.0532 H   0  0  0  0  0  0  0  0  0  0  0  0
    1.7493    3.9384    0.7107 C   0  0  0  0  0  0  0  0  0  0  0  0
    1.0914    4.4506    1.4293 H   0  0  0  0  0  0  0  0  0  0  0  0
    1.7277    2.5374    0.6365 C   0  0  0  0  0  0  0  0  0  0  0  0
    1.0690    1.9263    1.2745 H   0  0  0  0  0  0  0  0  0  0  0  0
  2  1  1  0  0  0  0
  2  4  1  0  0  0  0
  3  2  1  0  0  0  0
  5  2  1  0  0  0  0
  5  8  1  0  0  0  0
  6  5  1  0  0  0  0
  7  5  1  0  0  0  0
  8  9  1  0  0  0  0
  8 10  1  0  0  0  0
 11 14  1  0  0  0  0
 11  8  1  0  0  0  0
 12 11  1  0  0  0  0
 13 11  1  0  0  0  0
 14 15  1  0  0  0  0
 14 22  1  0  0  0  0
 15 24  1  6  0  0  0
 15 16  1  0  0  0  0
 16 17  1  0  0  0  0
 16 18  2  0  0  0  0
 18 19  1  0  0  0  0
 20 21  1  0  0  0  0
 20 18  1  0  0  0  0
 22 20  2  0  0  0  0
 23 22  1  0  0  0  0
 24 26  1  0  0  0  0
 25 24  1  0  0  0  0
 26 35  1  0  0  0  0
 27 29  1  0  0  0  0
 27 26  2  0  0  0  0
 28 27  1  0  0  0  0
 29 31  2  0  0  0  0
 30 29  1  0  0  0  0
 31 32  1  0  0  0  0
 31 33  1  0  0  0  0
 33 34  1  0  0  0  0
 35 33  2  0  0  0  0
 35 36  1  0  0  0  0
M  END
