2
q = -1.0, confidence = 0.0

 16 16  0  0  0  0  0  0  0  0999 V2000
   -3.8808   -1.0557   -0.9758 S   0  0  0  0  0  0  0  0  0  0  0  0
   -1.4674   -0.4419    0.2183 O   0  5  0  0  0  0  0  0  0  0  0  0
   -2.3595    0.4020    0.6999 C   0  0  0  0  0  0  0  0  0  0  0  0
   -3.7107    0.2425    0.2343 C   0  0  0  0  0  0  0  0  0  0  0  0
   -4.7442    1.0624    0.7073 C   0  0  0  0  0  0  0  0  0  0  0  0
   -4.4714    2.0756    1.6469 C   0  0  0  0  0  0  0  0  0  0  0  0
   -3.1568    2.2591    2.0985 C   0  0  0  0  0  0  0  0  0  0  0  0
   -2.1132    1.4409    1.6351 C   0  0  0  0  0  0  0  0  0  0  0  0
   -5.6395   -0.9408   -1.4118 C   0  0  0  0  0  0  0  0  0  0  0  0
   -5.7739    0.9262    0.3462 H   0  0  0  0  0  0  0  0  0  0  0  0
   -5.2876    2.7171    2.0111 H   0  0  0  0  0  0  0  0  0  0  0  0
   -2.9302    3.0581    2.8221 H   0  0  0  0  0  0  0  0  0  0  0  0
   -1.0762    1.6009    1.9595 H   0  0  0  0  0  0  0  0  0  0  0  0
   -5.8935    0.0553   -1.8271 H   0  0  0  0  0  0  0  0  0  0  0  0
   -5.8152   -1.7095   -2.1884 H   0  0  0  0  0  0  0  0  0  0  0  0
   -6.2931   -1.1549   -0.5423 H   0  0  0  0  0  0  0  0  0  0  0  0
  1  4  1  0  0  0  0
  2  3  1  0  0  0  0
  3  8  1  0  0  0  0
  4  3  2  0  0  0  0
  4  5  1  0  0  0  0
  5  6  2  0  0  0  0
  6 11  1  0  0  0  0
  6  7  1  0  0  0  0
  7 12  1  0  0  0  0
  8 13  1  0  0  0  0
  8  7  2  0  0  0  0
  9  1  1  0  0  0  0
  9 16  1  0  0  0  0
 10  5  1  0  0  0  0
 14  9  1  0  0  0  0
 15  9  1  0  0  0  0
M  CHG  1   2  -1
M  END
