4
q = -1.0, confidence = 0.032

 34 36  0  0  0  0  0  0  0  0999 V2000
    3.6330    0.8909   -0.4768 N   0  0  0  0  0  0  0  0  0  0  0  0
    3.0031   -0.2766   -0.1102 N   0  0  0  0  0  0  0  0  0  0  0  0
   -0.9747    1.3250   -0.2292 O   0  0  0  0  0  0  0  0  0  0  0  0
    0.8672   -1.0902    0.3742 O   0  5  0  0  0  0  0  0  0  0  0  0
    0.1133    1.9491   -0.1196 C   0  0  0  0  0  0  0  0  0  0  0  0
    1.4040    1.3033   -0.1587 C   0  0  0  0  0  0  0  0  0  0  0  0
    1.6399   -0.0973    0.0556 C   0  0  0  0  0  0  0  0  0  0  0  0
    2.7081    1.8375   -0.4962 C   0  0  0  0  0  0  0  0  0  0  0  0
    3.1004    3.2156   -0.9340 C   0  0  0  0  0  0  0  0  0  0  0  0
    3.7711   -1.4683   -0.0240 C   0  0  0  0  0  0  0  0  0  0  0  0
    3.2852   -2.6230    0.6248 C   0  0  0  0  0  0  0  0  0  0  0  0
    4.0874   -3.7718    0.6802 C   0  0  0  0  0  0  0  0  0  0  0  0
    5.3681   -3.7870    0.1079 C   0  0  0  0  0  0  0  0  0  0  0  0
    5.8490   -2.6294   -0.5254 C   0  0  0  0  0  0  0  0  0  0  0  0
    5.0616   -1.4745   -0.5954 C   0  0  0  0  0  0  0  0  0  0  0  0
    0.0228    3.4342    0.0736 C   0  0  0  0  0  0  0  0  0  0  0  0
    0.7959    4.0947    1.0498 C   0  0  0  0  0  0  0  0  0  0  0  0
    0.6255    5.4682    1.2760 C   0  0  0  0  0  0  0  0  0  0  0  0
   -0.3050    6.1956    0.5166 C   0  0  0  0  0  0  0  0  0  0  0  0
   -1.0851    5.5412   -0.4525 C   0  0  0  0  0  0  0  0  0  0  0  0
   -0.9357    4.1643   -0.6597 C   0  0  0  0  0  0  0  0  0  0  0  0
    2.3609    3.6444   -1.6381 H   0  0  0  0  0  0  0  0  0  0  0  0
    4.0885    3.1617   -1.4281 H   0  0  0  0  0  0  0  0  0  0  0  0
    3.1770    3.9234   -0.0848 H   0  0  0  0  0  0  0  0  0  0  0  0
    2.2892   -2.6124    1.0800 H   0  0  0  0  0  0  0  0  0  0  0  0
    3.7004   -4.6681    1.1888 H   0  0  0  0  0  0  0  0  0  0  0  0
    5.9897   -4.6934    0.1582 H   0  0  0  0  0  0  0  0  0  0  0  0
    6.8534   -2.6226   -0.9758 H   0  0  0  0  0  0  0  0  0  0  0  0
    5.4212   -0.5583   -1.0801 H   0  0  0  0  0  0  0  0  0  0  0  0
    1.5155    3.5162    1.6487 H   0  0  0  0  0  0  0  0  0  0  0  0
    1.2207    5.9740    2.0514 H   0  0  0  0  0  0  0  0  0  0  0  0
   -0.4297    7.2759    0.6864 H   0  0  0  0  0  0  0  0  0  0  0  0
   -1.8193    6.1093   -1.0438 H   0  0  0  0  0  0  0  0  0  0  0  0
   -1.5558    3.6311   -1.3954 H   0  0  0  0  0  0  0  0  0  0  0  0
  1  2  1  0  0  0  0
  2 10  1  0  0  0  0
  2  7  1  0  0  0  0
  3  5  2  0  0  0  0
  5 16  1  0  0  0  0
  6  5  1  0  0  0  0
  6  7  2  0  0  0  0
  7  4  1  0  0  0  0
  8  1  2  0  0  0  0
  8  6  1  0  0  0  0
  9  8  1  0  0  0  0
  9 24  1  0  0  0  0
 10 11  1  0  0  0  0
 11 12  2  0  0  0  0
 11 25  1  0  0  0  0
 12 26  1  0  0  0  0
 13 27  1  0  0  0  0
 13 12  1  0  0  0  0
 14 13  2  0  0  0  0
 15 14  1  0  0  0  0
 15 10  2  0  0  0  0
 16 17  1  0  0  0  0
 17 18  2  0  0  0  0
 17 30  1  0  0  0  0
 18 31  1  0  0  0  0
 19 32  1  0  0  0  0
 19 18  1  0  0  0  0
 20 19  2  0  0  0  0
 21 20  1  0  0  0  0
 21 16  2  0  0  0  0
 22  9  1  0  0  0  0
 23  9  1  0  0  0  0
 28 14  1  0  0  0  0
 29 15  1  0  0  0  0
 33 20  1  0  0  0  0
 34 21  1  0  0  0  0
M  CHG  1   4  -1
M  END
