3
q = -1.0, confidence = 0.002

 38 39  0  0  0  0  0  0  0  0999 V2000
    0.5085    1.5468   -1.0186 S   0  0  0  0  0  1  0  0  0  0  0  0
   -1.2678    1.2683   -0.0323 P   0  0  0  0  0  4  0  0  0  0  0  0
    0.3097   -1.6180   -0.1208 O   0  5  0  0  0  0  0  0  0  0  0  0
   -1.7989   -2.7998   -0.1959 C   0  0  0  0  0  0  0  0  0  0  0  0
   -1.5809   -3.3295   -1.1488 H   0  0  0  0  0  0  0  0  0  0  0  0
   -1.5012   -3.4917    0.6208 H   0  0  0  0  0  0  0  0  0  0  0  0
   -0.9662   -1.5212   -0.1282 C   0  0  0  0  0  0  0  0  0  0  0  0
   -1.8416   -0.4122   -0.0555 C   0  0  0  0  0  0  0  0  0  0  0  0
   -3.2313   -0.8999    0.0010 C   0  0  0  0  0  0  0  0  0  0  0  0
   -4.4720   -0.2441    0.1362 C   0  0  0  0  0  0  0  0  0  0  0  0
   -4.5345    0.8481    0.2363 H   0  0  0  0  0  0  0  0  0  0  0  0
   -5.6611   -0.9960    0.1591 C   0  0  0  0  0  0  0  0  0  0  0  0
   -6.6238   -0.4721    0.2639 H   0  0  0  0  0  0  0  0  0  0  0  0
   -5.6375   -2.3946    0.0553 C   0  0  0  0  0  0  0  0  0  0  0  0
   -6.5765   -2.9673    0.0749 H   0  0  0  0  0  0  0  0  0  0  0  0
   -4.4024   -3.0629   -0.0673 C   0  0  0  0  0  0  0  0  0  0  0  0
   -4.3699   -4.1616   -0.1405 H   0  0  0  0  0  0  0  0  0  0  0  0
   -3.2197   -2.3251   -0.0922 C   0  0  0  0  0  0  0  0  0  0  0  0
   -2.4893    2.3835   -0.8913 C   0  0  0  0  0  0  0  0  0  0  0  0
   -3.4202    2.3077   -0.2922 H   0  0  0  0  0  0  0  0  0  0  0  0
   -2.7579    1.8620   -2.3067 C   0  0  0  0  0  0  0  0  0  0  0  0
   -3.4910    2.5210   -2.8153 H   0  0  0  0  0  0  0  0  0  0  0  0
   -3.1679    0.8336   -2.2925 H   0  0  0  0  0  0  0  0  0  0  0  0
   -1.8234    1.8544   -2.9028 H   0  0  0  0  0  0  0  0  0  0  0  0
   -2.0058    3.8384   -0.8728 C   0  0  0  0  0  0  0  0  0  0  0  0
   -2.7472    4.4820   -1.3890 H   0  0  0  0  0  0  0  0  0  0  0  0
   -1.0353    3.9407   -1.3980 H   0  0  0  0  0  0  0  0  0  0  0  0
   -1.8807    4.2304    0.1563 H   0  0  0  0  0  0  0  0  0  0  0  0
   -1.1147    1.8558    1.7368 C   0  0  0  0  0  0  0  0  0  0  0  0
   -0.6218    2.8486    1.6470 H   0  0  0  0  0  0  0  0  0  0  0  0
   -2.4896    1.9981    2.4009 C   0  0  0  0  0  0  0  0  0  0  0  0
   -2.3638    2.2996    3.4612 H   0  0  0  0  0  0  0  0  0  0  0  0
   -3.0387    1.0342    2.3924 H   0  0  0  0  0  0  0  0  0  0  0  0
   -3.1250    2.7635    1.9129 H   0  0  0  0  0  0  0  0  0  0  0  0
   -0.2010    0.9039    2.5150 C   0  0  0  0  0  0  0  0  0  0  0  0
    0.0038    1.3153    3.5244 H   0  0  0  0  0  0  0  0  0  0  0  0
    0.7689    0.7439    1.9954 H   0  0  0  0  0  0  0  0  0  0  0  0
   -0.6818   -0.0881    2.6363 H   0  0  0  0  0  0  0  0  0  0  0  0
  1  2  1  0  0  0  0
  2 29  1  0  0  0  0
  4  7  1  0  0  0  0
  4 18  1  0  0  0  0
  4  6  1  0  0  0  0
  5  4  1  0  0  0  0
  7  3  1  0  0  0  0
  7  8  2  0  0  0  0
  8  2  1  0  0  0  0
  8  9  1  0  0  0  0
  9 10  1  0  0  0  0
 10 12  2  0  0  0  0
 10 11  1  0  0  0  0
 12 13  1  0  0  0  0
 14 15  1  0  0  0  0
 14 12  1  0  0  0  0
 16 14  2  0  0  0  0
 17 16  1  0  0  0  0
 18 16  1  0  0  0  0
 18  9  2  0  0  0  0
 19 25  1  0  0  0  0
 19 20  1  0  0  0  0
 19  2  1  0  0  0  0
 21 23  1  0  0  0  0
 21 19  1  0  0  0  0
 22 21  1  0  0  0  0
 24 21  1  0  0  0  0
 25 28  1  0  0  0  0
 26 25  1  0  0  0  0
 27 25  1  0  0  0  0
 29 31  1  0  0  0  0
 29 35  1  0  0  0  0
 30 29  1  0  0  0  0
 31 32  1  0  0  0  0
 33 31  1  0  0  0  0
 34 31  1  0  0  0  0
 35 38  1  0  0  0  0
 35 36  1  0  0  0  0
 37 35  1  0  0  0  0
M  CHG  1   3  -1
M  END
