3
q = -1.0, confidence = 0.02

 14 13  0  0  0  0  0  0  0  0999 V2000
   -4.4926    0.7494   -0.5108 Cl  0  0  0  0  0  0  0  0  0  0  0  0
   -2.0156   -0.6529    0.5417 Si  0  0  0  0  0  0  0  0  0  0  0  0
   -0.3662   -0.4093    0.7829 O   0  0  0  0  0  1  0  0  0  0  0  0
   -2.7047    0.9348   -0.2585 C   0  0  0  0  0  0  0  0  0  0  0  0
   -2.5501    1.8333    0.3720 H   0  0  0  0  0  0  0  0  0  0  0  0
   -2.2332    1.1099   -1.2458 H   0  0  0  0  0  0  0  0  0  0  0  0
   -2.2871   -2.0886   -0.6396 C   0  0  0  0  0  0  0  0  0  0  0  0
   -3.3537   -2.1392   -0.9375 H   0  0  0  0  0  0  0  0  0  0  0  0
   -2.0053   -3.0577   -0.1803 H   0  0  0  0  0  0  0  0  0  0  0  0
   -1.6752   -1.9285   -1.5504 H   0  0  0  0  0  0  0  0  0  0  0  0
   -2.8333   -0.9177    2.2140 C   0  0  0  0  0  0  0  0  0  0  0  0
   -2.5119   -1.8743    2.6731 H   0  0  0  0  0  0  0  0  0  0  0  0
   -3.9355   -0.9379    2.0954 H   0  0  0  0  0  0  0  0  0  0  0  0
   -2.5773   -0.0964    2.9140 H   0  0  0  0  0  0  0  0  0  0  0  0
  1  4  1  0  0  0  0
  2  3  1  0  0  0  0
  2 11  1  0  0  0  0
  4  5  1  0  0  0  0
  4  2  1  0  0  0  0
  6  4  1  0  0  0  0
  7  9  1  0  0  0  0
  7  2  1  0  0  0  0
  8  7  1  0  0  0  0
 10  7  1  0  0  0  0
 11 12  1  0  0  0  0
 11 14  1  0  0  0  0
 13 11  1  0  0  0  0
M  END
