1
q = 0.0, confidence = 0.992

 37 39  0  0  1  0  0  0  0  0999 V2000
    0.7118   -2.2307   -0.1568 O   0  0  0  0  0  1  0  0  0  0  0  0
    0.5369    0.4887   -0.2943 N   0  0  0  0  0  0  0  0  0  0  0  0
    1.7064   -0.1495   -0.2267 N   0  0  0  0  0  0  0  0  0  0  0  0
   -1.7792    1.7922   -1.2060 N   0  0  0  0  0  0  0  0  0  0  0  0
   -0.9057    2.3554   -0.3440 C   0  0  0  0  0  0  0  0  0  0  0  0
    0.4837    1.8003   -0.3285 C   0  0  0  0  0  0  0  0  0  0  0  0
    1.7366   -1.5331   -0.1677 C   0  0  1  0  0  3  0  0  0  0  0  0
    3.0964   -2.1368   -0.1089 C   0  0  0  0  0  0  0  0  0  0  0  0
    4.2675   -1.4337   -0.4682 C   0  0  0  0  0  0  0  0  0  0  0  0
    4.2103   -0.3976   -0.8352 H   0  0  0  0  0  0  0  0  0  0  0  0
    5.5153   -2.0659   -0.3955 C   0  0  0  0  0  0  0  0  0  0  0  0
    6.4241   -1.5175   -0.6852 H   0  0  0  0  0  0  0  0  0  0  0  0
    5.6048   -3.4001    0.0347 C   0  0  0  0  0  0  0  0  0  0  0  0
    6.5869   -3.8934    0.0923 H   0  0  0  0  0  0  0  0  0  0  0  0
    4.4414   -4.1067    0.3834 C   0  0  0  0  0  0  0  0  0  0  0  0
    4.5103   -5.1529    0.7165 H   0  0  0  0  0  0  0  0  0  0  0  0
    3.1919   -3.4817    0.3066 C   0  0  0  0  0  0  0  0  0  0  0  0
    2.2661   -4.0136    0.5689 H   0  0  0  0  0  0  0  0  0  0  0  0
    1.6533    2.7107   -0.3352 C   0  0  0  0  0  0  0  0  0  0  0  0
    1.5175    4.0891   -0.6301 C   0  0  0  0  0  0  0  0  0  0  0  0
    0.5300    4.5063   -0.8668 H   0  0  0  0  0  0  0  0  0  0  0  0
    2.6540    4.9038   -0.6293 C   0  0  0  0  0  0  0  0  0  0  0  0
    2.5636    5.9763   -0.8576 H   0  0  0  0  0  0  0  0  0  0  0  0
    3.9048    4.3376   -0.3406 C   0  0  0  0  0  0  0  0  0  0  0  0
    4.8212    4.9447   -0.3238 H   0  0  0  0  0  0  0  0  0  0  0  0
    3.9614    2.9597   -0.0867 C   0  0  0  0  0  0  0  0  0  0  0  0
    4.9236    2.4630    0.1255 H   0  0  0  0  0  0  0  0  0  0  0  0
    2.8781    2.1722   -0.0878 N   0  0  0  0  0  0  0  0  0  0  0  0
   -1.3008    3.3369    0.5857 C   0  0  0  0  0  0  0  0  0  0  0  0
   -0.5795    3.7339    1.3132 H   0  0  0  0  0  0  0  0  0  0  0  0
   -2.6445    3.7262    0.6231 C   0  0  0  0  0  0  0  0  0  0  0  0
   -2.9853    4.4654    1.3630 H   0  0  0  0  0  0  0  0  0  0  0  0
   -3.5500    3.1280   -0.2612 C   0  0  0  0  0  0  0  0  0  0  0  0
   -4.6185    3.3856   -0.2504 H   0  0  0  0  0  0  0  0  0  0  0  0
   -3.0684    2.1591   -1.1527 C   0  0  0  0  0  0  0  0  0  0  0  0
   -3.7522    1.6379   -1.8435 H   0  0  0  0  0  0  0  0  0  0  0  0
    2.5481    0.4718   -0.0961 H   0  0  0  0  0  0  0  0  0  0  0  0
  2  3  1  0  0  0  0
  3  7  1  0  0  0  0
  3 37  1  0  0  0  0
  4 35  2  0  0  0  0
  4  5  1  0  0  0  0
  5  6  1  0  0  0  0
  5 29  2  0  0  0  0
  6  2  2  0  0  0  0
  7  1  1  1  0  0  0
  7  8  1  0  0  0  0
  8 17  1  0  0  0  0
  9 11  1  0  0  0  0
  9  8  2  0  0  0  0
 10  9  1  0  0  0  0
 11 13  2  0  0  0  0
 12 11  1  0  0  0  0
 13 14  1  0  0  0  0
 13 15  1  0  0  0  0
 15 16  1  0  0  0  0
 17 15  2  0  0  0  0
 17 18  1  0  0  0  0
 19  6  1  0  0  0  0
 19 28  1  0  0  0  0
 20 22  1  0  0  0  0
 20 19  2  0  0  0  0
 21 20  1  0  0  0  0
 22 24  2  0  0  0  0
 23 22  1  0  0  0  0
 24 25  1  0  0  0  0
 24 26  1  0  0  0  0
 26 27  1  0  0  0  0
 28 26  2  0  0  0  0
 29 31  1  0  0  0  0
 29 30  1  0  0  0  0
 31 32  1  0  0  0  0
 33 34  1  0  0  0  0
 33 31  2  0  0  0  0
 35 33  1  0  0  0  0
 36 35  1  0  0  0  0
M  END
