1
q = 0.0, confidence = 1.0

 35 36  0  0  1  0  0  0  0  0999 V2000
    2.4438   -1.5455   -0.1463 O   0  0  0  0  0  1  0  0  0  0  0  0
    8.7642   -0.8297    0.3491 O   0  0  0  0  0  0  0  0  0  0  0  0
    0.8048    4.1395    1.2651 O   0  0  0  0  0  0  0  0  0  0  0  0
   -0.8731    5.4469    1.7388 O   0  0  0  0  0  0  0  0  0  0  0  0
    1.1809    0.5289    1.1676 N   0  0  0  0  0  0  0  0  0  0  0  0
    2.5135    0.3279    1.1814 N   0  0  0  0  0  0  0  0  0  0  0  0
    3.1087    0.9440    1.7515 H   0  0  0  0  0  0  0  0  0  0  0  0
   -0.3741    4.3360    1.5937 N   0  0  0  0  0  0  0  0  0  0  0  0
    3.1029   -0.6976    0.4688 C   0  0  2  0  0  3  0  0  0  0  0  0
    0.7498    1.5618    1.8198 C   0  0  0  0  0  0  0  0  0  0  0  0
    1.4597    2.2458    2.3265 H   0  0  0  0  0  0  0  0  0  0  0  0
    4.5892   -0.7067    0.4740 C   0  0  0  0  0  0  0  0  0  0  0  0
    5.3819    0.4436    0.7044 C   0  0  0  0  0  0  0  0  0  0  0  0
    4.9138    1.4243    0.8841 H   0  0  0  0  0  0  0  0  0  0  0  0
    6.7723    0.3722    0.6544 C   0  0  0  0  0  0  0  0  0  0  0  0
    7.3995    1.2596    0.8193 H   0  0  0  0  0  0  0  0  0  0  0  0
    7.4116   -0.8578    0.3707 C   0  0  0  0  0  0  0  0  0  0  0  0
    6.6293   -2.0088    0.1232 C   0  0  0  0  0  0  0  0  0  0  0  0
    7.1001   -2.9736   -0.1061 H   0  0  0  0  0  0  0  0  0  0  0  0
    5.2349   -1.9210    0.1684 C   0  0  0  0  0  0  0  0  0  0  0  0
    4.6112   -2.8043   -0.0326 H   0  0  0  0  0  0  0  0  0  0  0  0
    9.4676   -2.0283    0.0614 C   0  0  0  0  0  0  0  0  0  0  0  0
    9.2208   -2.4170   -0.9511 H   0  0  0  0  0  0  0  0  0  0  0  0
    9.2554   -2.8200    0.8131 H   0  0  0  0  0  0  0  0  0  0  0  0
   10.5424   -1.7736    0.0985 H   0  0  0  0  0  0  0  0  0  0  0  0
   -0.6875    1.8492    1.9167 C   0  0  0  0  0  0  0  0  0  0  0  0
   -1.5871    0.7839    2.1463 C   0  0  0  0  0  0  0  0  0  0  0  0
   -1.1801   -0.2336    2.2749 H   0  0  0  0  0  0  0  0  0  0  0  0
   -2.9649    1.0116    2.2440 C   0  0  0  0  0  0  0  0  0  0  0  0
   -3.6361    0.1567    2.4123 H   0  0  0  0  0  0  0  0  0  0  0  0
   -3.4835    2.3123    2.1250 C   0  0  0  0  0  0  0  0  0  0  0  0
   -4.5673    2.4888    2.1929 H   0  0  0  0  0  0  0  0  0  0  0  0
   -2.6125    3.3894    1.9268 C   0  0  0  0  0  0  0  0  0  0  0  0
   -2.9677    4.4239    1.8353 H   0  0  0  0  0  0  0  0  0  0  0  0
   -1.2339    3.1549    1.8274 C   0  0  0  0  0  0  0  0  0  0  0  0
  2 17  1  0  0  0  0
  3  8  2  0  0  0  0
  5  6  1  0  0  0  0
  5 10  2  0  0  0  0
  6  7  1  0  0  0  0
  8  4  2  0  0  0  0
  8 35  1  0  0  0  0
  9  1  1  6  0  0  0
  9 12  1  0  0  0  0
  9  6  1  0  0  0  0
 10 26  1  0  0  0  0
 10 11  1  0  0  0  0
 12 13  1  0  0  0  0
 13 14  1  0  0  0  0
 15 13  2  0  0  0  0
 15 16  1  0  0  0  0
 17 15  1  0  0  0  0
 18 20  1  0  0  0  0
 18 17  2  0  0  0  0
 19 18  1  0  0  0  0
 20 12  2  0  0  0  0
 21 20  1  0  0  0  0
 22 25  1  0  0  0  0
 22  2  1  0  0  0  0
 22 24  1  0  0  0  0
 23 22  1  0  0  0  0
 26 27  1  0  0  0  0
 27 29  2  0  0  0  0
 27 28  1  0  0  0  0
 29 30  1  0  0  0  0
 31 32  1  0  0  0  0
 31 29  1  0  0  0  0
 33 31  2  0  0  0  0
 34 33  1  0  0  0  0
 35 26  2  0  0  0  0
 35 33  1  0  0  0  0
M  END
