2
q = -1.0, confidence = 0.002

 18 18  0  0  0  0  0  0  0  0999 V2000
   -0.9775    0.2189    1.1338 O   0  0  0  0  0  0  0  0  0  0  0  0
   -1.6117    1.5510   -1.0474 O   0  5  0  0  0  0  0  0  0  0  0  0
   -6.1742   -2.8188    0.1512 O   0  0  0  0  0  0  0  0  0  0  0  0
   -2.4786    0.6492   -0.6499 C   0  0  0  0  0  0  0  0  0  0  0  0
   -3.7075    0.3838   -1.3191 C   0  0  0  0  0  0  0  0  0  0  0  0
   -3.9526    1.0017   -2.1959 H   0  0  0  0  0  0  0  0  0  0  0  0
   -4.5518   -0.6332   -0.8841 C   0  0  0  0  0  0  0  0  0  0  0  0
   -5.4993   -0.8521   -1.3998 H   0  0  0  0  0  0  0  0  0  0  0  0
   -4.2178   -1.4356    0.2343 C   0  0  0  0  0  0  0  0  0  0  0  0
   -3.0085   -1.1854    0.9310 C   0  0  0  0  0  0  0  0  0  0  0  0
   -2.7547   -1.8107    1.8011 H   0  0  0  0  0  0  0  0  0  0  0  0
   -2.1798   -0.1605    0.4996 C   0  0  0  0  0  0  0  0  0  0  0  0
   -0.3606   -0.6932    2.0505 C   0  0  0  0  0  0  0  0  0  0  0  0
   -1.0310   -0.8847    2.9129 H   0  0  0  0  0  0  0  0  0  0  0  0
    0.5626   -0.1926    2.3901 H   0  0  0  0  0  0  0  0  0  0  0  0
   -0.1159   -1.6515    1.5460 H   0  0  0  0  0  0  0  0  0  0  0  0
   -5.1078   -2.5188    0.6738 C   0  0  0  0  0  0  0  0  0  0  0  0
   -4.7213   -3.0890    1.5773 H   0  0  0  0  0  0  0  0  0  0  0  0
  1 13  1  0  0  0  0
  2  4  1  0  0  0  0
  3 17  2  0  0  0  0
  4 12  1  0  0  0  0
  5  7  1  0  0  0  0
  5  4  2  0  0  0  0
  6  5  1  0  0  0  0
  7  9  2  0  0  0  0
  8  7  1  0  0  0  0
  9 17  1  0  0  0  0
  9 10  1  0  0  0  0
 10 11  1  0  0  0  0
 12 10  2  0  0  0  0
 12  1  1  0  0  0  0
 13 15  1  0  0  0  0
 13 14  1  0  0  0  0
 16 13  1  0  0  0  0
 17 18  1  0  0  0  0
M  CHG  1   2  -1
M  END
