1
q = -1.0, confidence = 0.0

 26 28  0  0  0  0  0  0  0  0999 V2000
    0.0690   -1.1345    2.1637 O   0  5  0  0  0  0  0  0  0  0  0  0
    1.1912    0.4249    3.3669 O   0  0  0  0  0  0  0  0  0  0  0  0
    0.5272    0.0450    2.3898 C   0  0  0  0  0  0  0  0  0  0  0  0
    0.2262    1.0812    1.2927 C   0  0  0  0  0  0  0  0  0  0  0  0
   -1.1166    1.4573    0.9963 C   0  0  0  0  0  0  0  0  0  0  0  0
   -2.2307    0.9044    1.7109 C   0  0  0  0  0  0  0  0  0  0  0  0
   -2.0237    0.1416    2.4747 H   0  0  0  0  0  0  0  0  0  0  0  0
   -3.5268    1.3008    1.4391 C   0  0  0  0  0  0  0  0  0  0  0  0
   -4.3627    0.8660    2.0076 H   0  0  0  0  0  0  0  0  0  0  0  0
   -3.7895    2.2695    0.4231 C   0  0  0  0  0  0  0  0  0  0  0  0
   -4.8256    2.5883    0.2264 H   0  0  0  0  0  0  0  0  0  0  0  0
   -2.7476    2.8141   -0.3031 C   0  0  0  0  0  0  0  0  0  0  0  0
   -2.9413    3.5638   -1.0872 H   0  0  0  0  0  0  0  0  0  0  0  0
   -1.3885    2.4272   -0.0524 C   0  0  0  0  0  0  0  0  0  0  0  0
   -0.3217    2.9422   -0.8147 C   0  0  0  0  0  0  0  0  0  0  0  0
   -0.5321    3.6529   -1.6303 H   0  0  0  0  0  0  0  0  0  0  0  0
    1.0119    2.5814   -0.5392 C   0  0  0  0  0  0  0  0  0  0  0  0
    2.1061    3.1030   -1.3068 C   0  0  0  0  0  0  0  0  0  0  0  0
    1.8808    3.7796   -2.1467 H   0  0  0  0  0  0  0  0  0  0  0  0
    3.4147    2.7870   -0.9907 C   0  0  0  0  0  0  0  0  0  0  0  0
    4.2423    3.2084   -1.5828 H   0  0  0  0  0  0  0  0  0  0  0  0
    3.6966    1.9402    0.1240 C   0  0  0  0  0  0  0  0  0  0  0  0
    4.7425    1.7282    0.3963 H   0  0  0  0  0  0  0  0  0  0  0  0
    2.6685    1.4054    0.8789 C   0  0  0  0  0  0  0  0  0  0  0  0
    2.8723    0.7807    1.7595 H   0  0  0  0  0  0  0  0  0  0  0  0
    1.2966    1.6767    0.5624 C   0  0  0  0  0  0  0  0  0  0  0  0
  1  3  1  0  0  0  0
  3  2  2  0  0  0  0
  4  3  1  0  0  0  0
  5  4  1  0  0  0  0
  5  6  1  0  0  0  0
  6  7  1  0  0  0  0
  8  6  2  0  0  0  0
  8  9  1  0  0  0  0
 10  8  1  0  0  0  0
 11 10  1  0  0  0  0
 12 14  1  0  0  0  0
 12 10  2  0  0  0  0
 13 12  1  0  0  0  0
 14  5  2  0  0  0  0
 15 17  2  0  0  0  0
 15 14  1  0  0  0  0
 16 15  1  0  0  0  0
 17 26  1  0  0  0  0
 18 20  2  0  0  0  0
 18 17  1  0  0  0  0
 19 18  1  0  0  0  0
 20 22  1  0  0  0  0
 21 20  1  0  0  0  0
 22 23  1  0  0  0  0
 22 24  2  0  0  0  0
 24 25  1  0  0  0  0
 26 24  1  0  0  0  0
 26  4  2  0  0  0  0
M  CHG  1   1  -1
M  END
