8
q = 0.0, confidence = 0.932

 44 43  0  0  0  0  0  0  0  0999 V2000
    0.8816    0.1041    1.5132 P   0  0  0  0  0  4  0  0  0  0  0  0
    0.5308   -2.7180    2.6347 Si  0  0  0  0  0  0  0  0  0  0  0  0
   -0.4432    2.4429    2.8017 Si  0  0  0  0  0  0  0  0  0  0  0  0
    3.6799    1.1669    1.0303 Si  0  0  0  0  0  0  0  0  0  0  0  0
    1.3695   -1.2607    2.1535 O   0  0  0  0  0  0  0  0  0  0  0  0
    0.7402    1.1434    2.7211 O   0  0  0  0  0  0  0  0  0  0  0  0
    2.0836    0.6007    0.5926 O   0  0  0  0  0  0  0  0  0  0  0  0
   -0.4313   -0.0071    0.7390 O   0  0  0  0  0  1  0  0  0  0  0  0
   -0.5841   -2.2052    4.0577 C   0  0  0  0  0  0  0  0  0  0  0  0
   -0.0049   -1.7033    4.8588 H   0  0  0  0  0  0  0  0  0  0  0  0
   -1.0990   -3.0833    4.4987 H   0  0  0  0  0  0  0  0  0  0  0  0
   -1.3636   -1.5011    3.7005 H   0  0  0  0  0  0  0  0  0  0  0  0
    1.9579   -3.8170    3.1512 C   0  0  0  0  0  0  0  0  0  0  0  0
    2.6313   -3.9776    2.2847 H   0  0  0  0  0  0  0  0  0  0  0  0
    1.5968   -4.8072    3.4963 H   0  0  0  0  0  0  0  0  0  0  0  0
    2.5464   -3.3563    3.9698 H   0  0  0  0  0  0  0  0  0  0  0  0
   -0.4294   -3.4201    1.1943 C   0  0  0  0  0  0  0  0  0  0  0  0
   -1.2917   -2.7845    0.9173 H   0  0  0  0  0  0  0  0  0  0  0  0
   -0.8196   -4.4228    1.4677 H   0  0  0  0  0  0  0  0  0  0  0  0
    0.2048   -3.5223    0.2927 H   0  0  0  0  0  0  0  0  0  0  0  0
   -0.4106    3.3768    1.1776 C   0  0  0  0  0  0  0  0  0  0  0  0
    0.6110    3.7291    0.9333 H   0  0  0  0  0  0  0  0  0  0  0  0
   -1.0747    4.2630    1.2432 H   0  0  0  0  0  0  0  0  0  0  0  0
   -0.7798    2.7498    0.3423 H   0  0  0  0  0  0  0  0  0  0  0  0
   -2.1012    1.6419    3.1565 C   0  0  0  0  0  0  0  0  0  0  0  0
   -2.3348    0.9154    2.3532 H   0  0  0  0  0  0  0  0  0  0  0  0
   -2.9100    2.3994    3.1779 H   0  0  0  0  0  0  0  0  0  0  0  0
   -2.0897    1.1087    4.1285 H   0  0  0  0  0  0  0  0  0  0  0  0
    0.1932    3.4666    4.2396 C   0  0  0  0  0  0  0  0  0  0  0  0
    0.2701    2.8538    5.1602 H   0  0  0  0  0  0  0  0  0  0  0  0
   -0.4929    4.3135    4.4469 H   0  0  0  0  0  0  0  0  0  0  0  0
    1.1954    3.8871    4.0194 H   0  0  0  0  0  0  0  0  0  0  0  0
    4.1331    0.3821    2.6737 C   0  0  0  0  0  0  0  0  0  0  0  0
    3.4155    0.6758    3.4655 H   0  0  0  0  0  0  0  0  0  0  0  0
    5.1476    0.7063    2.9848 H   0  0  0  0  0  0  0  0  0  0  0  0
    4.1255   -0.7232    2.5961 H   0  0  0  0  0  0  0  0  0  0  0  0
    3.5509    3.0353    1.1319 C   0  0  0  0  0  0  0  0  0  0  0  0
    4.5467    3.4888    1.3147 H   0  0  0  0  0  0  0  0  0  0  0  0
    2.8762    3.3430    1.9554 H   0  0  0  0  0  0  0  0  0  0  0  0
    3.1561    3.4412    0.1789 H   0  0  0  0  0  0  0  0  0  0  0  0
    4.8237    0.6146   -0.3440 C   0  0  0  0  0  0  0  0  0  0  0  0
    4.7759   -0.4828   -0.4849 H   0  0  0  0  0  0  0  0  0  0  0  0
    5.8676    0.8824   -0.0781 H   0  0  0  0  0  0  0  0  0  0  0  0
    4.5811    1.1071   -1.3050 H   0  0  0  0  0  0  0  0  0  0  0  0
  1  5  1  0  0  0  0
  1  6  1  0  0  0  0
  2 13  1  0  0  0  0
  2  9  1  0  0  0  0
  3 25  1  0  0  0  0
  3 29  1  0  0  0  0
  4 37  1  0  0  0  0
  4 33  1  0  0  0  0
  5  2  1  0  0  0  0
  6  3  1  0  0  0  0
  7  4  1  0  0  0  0
  7  1  1  0  0  0  0
  8  1  1  0  0  0  0
  9 11  1  0  0  0  0
  9 10  1  0  0  0  0
 12  9  1  0  0  0  0
 13 15  1  0  0  0  0
 13 16  1  0  0  0  0
 14 13  1  0  0  0  0
 17 19  1  0  0  0  0
 17  2  1  0  0  0  0
 18 17  1  0  0  0  0
 20 17  1  0  0  0  0
 21 23  1  0  0  0  0
 21  3  1  0  0  0  0
 22 21  1  0  0  0  0
 24 21  1  0  0  0  0
 25 27  1  0  0  0  0
 25 28  1  0  0  0  0
 26 25  1  0  0  0  0
 29 31  1  0  0  0  0
 29 30  1  0  0  0  0
 32 29  1  0  0  0  0
 33 35  1  0  0  0  0
 33 34  1  0  0  0  0
 36 33  1  0  0  0  0
 37 38  1  0  0  0  0
 37 39  1  0  0  0  0
 40 37  1  0  0  0  0
 41 43  1  0  0  0  0
 41  4  1  0  0  0  0
 42 41  1  0  0  0  0
 44 41  1  0  0  0  0
M  END
