33
q = -2.0, confidence = 0.884

 34 37  0  0  0  0  0  0  0  0999 V2000
    1.1878   -2.0435    0.2437 C   0  0  0  0  0  0  0  0  0  0  0  0
    1.9916   -3.1961    0.5187 C   0  0  0  0  0  0  0  0  0  0  0  0
    1.4801   -4.1303    0.7930 H   0  0  0  0  0  0  0  0  0  0  0  0
    3.3668   -3.1118    0.4474 C   0  0  0  0  0  0  0  0  0  0  0  0
    3.9871   -3.9944    0.6713 H   0  0  0  0  0  0  0  0  0  0  0  0
    4.0199   -1.8980    0.0704 C   0  0  0  0  0  0  0  0  0  0  0  0
    5.4368   -1.8194   -0.0358 C   0  0  0  0  0  0  0  0  0  0  0  0
    6.0287   -2.7168    0.2061 H   0  0  0  0  0  0  0  0  0  0  0  0
    6.0664   -0.6511   -0.4431 C   0  0  0  0  0  0  0  0  0  0  0  0
    7.1631   -0.6069   -0.5221 H   0  0  0  0  0  0  0  0  0  0  0  0
    5.2815    0.4829   -0.7751 C   0  0  0  0  0  0  0  0  0  0  0  0
    5.7734    1.4047   -1.1226 H   0  0  0  0  0  0  0  0  0  0  0  0
    3.8969    0.4431   -0.6758 C   0  0  0  0  0  0  0  0  0  0  0  0
    3.3117    1.3306   -0.9527 H   0  0  0  0  0  0  0  0  0  0  0  0
    3.2167   -0.7328   -0.2328 C   0  0  0  0  0  0  0  0  0  0  0  0
    1.7907   -0.8237   -0.1017 C   0  0  0  0  0  0  0  0  0  0  0  0
    0.8818    0.3332   -0.3966 C   0  0  0  0  0  0  0  0  0  0  0  0
    0.1621    0.3639   -1.6867 C   0  0  0  0  0  0  0  0  0  0  0  0
   -0.0618    1.6324   -2.3652 C   0  0  0  0  0  0  0  0  0  0  0  0
   -0.5095    1.5917   -3.3691 H   0  0  0  0  0  0  0  0  0  0  0  0
    0.2911    2.8113   -1.7659 C   0  0  0  0  0  0  0  0  0  0  0  0
    0.1341    3.7680   -2.2905 H   0  0  0  0  0  0  0  0  0  0  0  0
    0.8447    2.8538   -0.4313 C   0  0  0  0  0  0  0  0  0  0  0  0
    1.1152    4.0894    0.2123 C   0  0  0  0  0  0  0  0  0  0  0  0
    0.8849    5.0253   -0.3215 H   0  0  0  0  0  0  0  0  0  0  0  0
    1.6577    4.1270    1.4954 C   0  0  0  0  0  0  0  0  0  0  0  0
    1.8577    5.0923    1.9840 H   0  0  0  0  0  0  0  0  0  0  0  0
    1.9565    2.9178    2.1627 C   0  0  0  0  0  0  0  0  0  0  0  0
    2.3889    2.9422    3.1746 H   0  0  0  0  0  0  0  0  0  0  0  0
    1.7138    1.6914    1.5427 C   0  0  0  0  0  0  0  0  0  0  0  0
    1.9579    0.7460    2.0498 H   0  0  0  0  0  0  0  0  0  0  0  0
    1.1449    1.6282    0.2481 C   0  0  0  0  0  0  0  0  0  0  0  0
   -0.1327   -2.1344    0.3582 O   0  5  0  0  0  0  0  0  0  0  0  0
   -0.2813   -0.7753   -2.1469 O   0  5  0  0  0  0  0  0  0  0  0  0
  1 33  1  0  0  0  0
  1  2  1  0  0  0  0
  2  3  1  0  0  0  0
  4  2  2  0  0  0  0
  4  5  1  0  0  0  0
  6  4  1  0  0  0  0
  7  6  1  0  0  0  0
  7  8  1  0  0  0  0
  9  7  2  0  0  0  0
 10  9  1  0  0  0  0
 11 13  2  0  0  0  0
 11  9  1  0  0  0  0
 12 11  1  0  0  0  0
 13 15  1  0  0  0  0
 14 13  1  0  0  0  0
 15 16  1  0  0  0  0
 15  6  2  0  0  0  0
 16  1  2  0  0  0  0
 17 16  1  0  0  0  0
 17 32  1  0  0  0  0
 18 17  2  0  0  0  0
 19 21  2  0  0  0  0
 19 18  1  0  0  0  0
 20 19  1  0  0  0  0
 21 23  1  0  0  0  0
 22 21  1  0  0  0  0
 23 24  2  0  0  0  0
 23 32  1  0  0  0  0
 24 26  1  0  0  0  0
 25 24  1  0  0  0  0
 26 27  1  0  0  0  0
 26 28  2  0  0  0  0
 28 29  1  0  0  0  0
 30 31  1  0  0  0  0
 30 28  1  0  0  0  0
 32 30  2  0  0  0  0
 34 18  1  0  0  0  0
M  CHG  2  33  -1  34  -1
M  END
