1
q = 0.0, confidence = 0.956

 36 36  0  0  0  0  0  0  0  0999 V2000
   -0.1902    0.1137   -1.8455 O   0  0  0  0  0  1  0  0  0  0  0  0
   -0.3927    1.6259    0.6228 N   0  0  0  0  0  0  0  0  0  0  0  0
    2.2759    1.1453   -0.7153 N   0  0  0  0  0  0  0  0  0  0  0  0
   -1.1073   -0.7291   -1.4293 C   0  0  0  0  0  3  0  0  0  0  0  0
   -2.4110   -0.2854   -0.8866 C   0  0  0  0  0  0  0  0  0  0  0  0
   -3.4716   -1.2160   -0.8618 C   0  0  0  0  0  0  0  0  0  0  0  0
   -4.7302   -0.8698   -0.3556 C   0  0  0  0  0  0  0  0  0  0  0  0
   -4.9486    0.4238    0.1406 C   0  0  0  0  0  0  0  0  0  0  0  0
   -3.8943    1.3518    0.1402 C   0  0  0  0  0  0  0  0  0  0  0  0
   -2.6244    1.0187   -0.3585 C   0  0  0  0  0  0  0  0  0  0  0  0
   -1.5049    2.0266   -0.2965 C   0  0  0  0  0  0  0  0  0  0  0  0
    0.7034    2.6235    0.5365 C   0  0  0  0  0  0  0  0  0  0  0  0
    1.5545    2.4451   -0.7141 C   0  0  0  0  0  0  0  0  0  0  0  0
    3.4711    1.2107    0.1524 C   0  0  0  0  0  0  0  0  0  0  0  0
    2.7109    0.8076   -2.0907 C   0  0  0  0  0  0  0  0  0  0  0  0
   -0.9034    1.5590    2.0083 C   0  0  0  0  0  0  0  0  0  0  0  0
   -1.1006   -1.7604   -1.8503 H   0  0  0  0  0  0  0  0  0  0  0  0
   -3.2936   -2.2292   -1.2545 H   0  0  0  0  0  0  0  0  0  0  0  0
   -5.5425   -1.6122   -0.3474 H   0  0  0  0  0  0  0  0  0  0  0  0
   -5.9337    0.7098    0.5384 H   0  0  0  0  0  0  0  0  0  0  0  0
   -4.0564    2.3631    0.5468 H   0  0  0  0  0  0  0  0  0  0  0  0
   -1.0708    2.1578   -1.3036 H   0  0  0  0  0  0  0  0  0  0  0  0
   -1.9067    3.0081    0.0482 H   0  0  0  0  0  0  0  0  0  0  0  0
    0.2919    3.6608    0.5633 H   0  0  0  0  0  0  0  0  0  0  0  0
    1.3311    2.5064    1.4423 H   0  0  0  0  0  0  0  0  0  0  0  0
    2.2763    3.2910   -0.8023 H   0  0  0  0  0  0  0  0  0  0  0  0
    0.9140    2.4660   -1.6162 H   0  0  0  0  0  0  0  0  0  0  0  0
    3.9415    0.2119    0.1996 H   0  0  0  0  0  0  0  0  0  0  0  0
    4.2058    1.9468   -0.2484 H   0  0  0  0  0  0  0  0  0  0  0  0
    3.1939    1.5045    1.1805 H   0  0  0  0  0  0  0  0  0  0  0  0
    1.8234    0.6808   -2.7353 H   0  0  0  0  0  0  0  0  0  0  0  0
    3.3731    1.6057   -2.4994 H   0  0  0  0  0  0  0  0  0  0  0  0
    3.2663   -0.1477   -2.0683 H   0  0  0  0  0  0  0  0  0  0  0  0
   -1.7102    0.8065    2.0642 H   0  0  0  0  0  0  0  0  0  0  0  0
   -0.0888    1.2469    2.6865 H   0  0  0  0  0  0  0  0  0  0  0  0
   -1.3047    2.5471    2.3359 H   0  0  0  0  0  0  0  0  0  0  0  0
  1  4  1  0  0  0  0
  2 16  1  0  0  0  0
  3 13  1  0  0  0  0
  3 14  1  0  0  0  0
  4  5  1  0  0  0  0
  5  6  2  0  0  0  0
  5 10  1  0  0  0  0
  6  7  1  0  0  0  0
  7 19  1  0  0  0  0
  7  8  2  0  0  0  0
  8 20  1  0  0  0  0
  9  8  1  0  0  0  0
  9 21  1  0  0  0  0
 10 11  1  0  0  0  0
 10  9  2  0  0  0  0
 11 23  1  0  0  0  0
 11  2  1  0  0  0  0
 12 24  1  0  0  0  0
 12  2  1  0  0  0  0
 12 25  1  0  0  0  0
 13 12  1  0  0  0  0
 14 28  1  0  0  0  0
 14 30  1  0  0  0  0
 15 33  1  0  0  0  0
 15  3  1  0  0  0  0
 16 34  1  0  0  0  0
 16 36  1  0  0  0  0
 16 35  1  0  0  0  0
 17  4  1  0  0  0  0
 18  6  1  0  0  0  0
 22 11  1  0  0  0  0
 26 13  1  0  0  0  0
 27 13  1  0  0  0  0
 29 14  1  0  0  0  0
 31 15  1  0  0  0  0
 32 15  1  0  0  0  0
M  END
