1
q = -1.0, confidence = 0.016

 19 19  0  0  0  0  0  0  0  0999 V2000
    1.5851   -0.4421   -0.1784 O   0  5  0  0  0  0  0  0  0  0  0  0
    3.0043    0.2259    1.4664 O   0  0  0  0  0  0  0  0  0  0  0  0
    9.6257   -2.9697    0.8579 O   0  0  0  0  0  0  0  0  0  0  0  0
    9.5228   -2.4060    1.6470 H   0  0  0  0  0  0  0  0  0  0  0  0
    2.7149   -0.4470    0.4236 C   0  0  0  0  0  0  0  0  0  0  0  0
    3.7675   -1.3044   -0.1967 C   0  0  0  0  0  0  0  0  0  0  0  0
    3.4644   -1.8375   -1.1108 H   0  0  0  0  0  0  0  0  0  0  0  0
    5.0052   -1.4181    0.3443 C   0  0  0  0  0  0  0  0  0  0  0  0
    5.1771   -0.8386    1.2687 H   0  0  0  0  0  0  0  0  0  0  0  0
    6.1289   -2.2156   -0.1514 C   0  0  0  0  0  0  0  0  0  0  0  0
    7.3355   -2.2103    0.5861 C   0  0  0  0  0  0  0  0  0  0  0  0
    7.3951   -1.6106    1.5104 H   0  0  0  0  0  0  0  0  0  0  0  0
    8.4521   -2.9548    0.1662 C   0  0  0  0  0  0  0  0  0  0  0  0
    8.3735   -3.7207   -1.0135 C   0  0  0  0  0  0  0  0  0  0  0  0
    9.2533   -4.2983   -1.3313 H   0  0  0  0  0  0  0  0  0  0  0  0
    7.1797   -3.7296   -1.7499 C   0  0  0  0  0  0  0  0  0  0  0  0
    7.1220   -4.3302   -2.6706 H   0  0  0  0  0  0  0  0  0  0  0  0
    6.0657   -2.9912   -1.3344 C   0  0  0  0  0  0  0  0  0  0  0  0
    5.1402   -3.0130   -1.9265 H   0  0  0  0  0  0  0  0  0  0  0  0
  1  5  1  0  0  0  0
  3  4  1  0  0  0  0
  5  2  2  0  0  0  0
  6  8  2  0  0  0  0
  6  5  1  0  0  0  0
  7  6  1  0  0  0  0
  8  9  1  0  0  0  0
 10  8  1  0  0  0  0
 10 11  1  0  0  0  0
 11 12  1  0  0  0  0
 13 11  2  0  0  0  0
 13  3  1  0  0  0  0
 14 13  1  0  0  0  0
 15 14  1  0  0  0  0
 16 18  1  0  0  0  0
 16 14  2  0  0  0  0
 17 16  1  0  0  0  0
 18 10  2  0  0  0  0
 19 18  1  0  0  0  0
M  CHG  1   1  -1
M  END
