10
q = -1.0, confidence = 0.0

 17 17  0  0  0  0  0  0  0  0999 V2000
   -1.6165    0.0759   -0.3096 C   0  0  0  0  0  0  0  0  0  0  0  0
   -2.9922    0.3280    0.2237 C   0  0  0  0  0  0  0  0  0  0  0  0
   -3.1954    1.0921    1.3905 C   0  0  0  0  0  0  0  0  0  0  0  0
   -4.4932    1.3200    1.8696 C   0  0  0  0  0  0  0  0  0  0  0  0
   -5.5937    0.7832    1.1899 C   0  0  0  0  0  0  0  0  0  0  0  0
   -5.3996    0.0197    0.0202 C   0  0  0  0  0  0  0  0  0  0  0  0
   -6.6100   -0.5260   -0.6662 C   0  0  0  0  0  0  0  0  0  0  0  0
   -4.0994   -0.2031   -0.4637 C   0  0  0  0  0  0  0  0  0  0  0  0
   -1.4864   -0.5163   -1.4113 O   0  5  0  0  0  0  0  0  0  0  0  0
   -0.6163    0.4909    0.4117 O   0  0  0  0  0  0  0  0  0  0  0  0
   -6.3039   -1.2416   -1.7776 O   0  0  0  0  0  0  0  0  0  0  0  0
   -7.7556   -0.3572   -0.2845 O   0  0  0  0  0  0  0  0  0  0  0  0
   -3.9308   -0.7904   -1.3760 H   0  0  0  0  0  0  0  0  0  0  0  0
   -2.3229    1.5148    1.9083 H   0  0  0  0  0  0  0  0  0  0  0  0
   -4.6469    1.9215    2.7779 H   0  0  0  0  0  0  0  0  0  0  0  0
   -6.6239    0.9415    1.5416 H   0  0  0  0  0  0  0  0  0  0  0  0
   -7.1654   -1.5434   -2.1376 H   0  0  0  0  0  0  0  0  0  0  0  0
  1  2  1  0  0  0  0
  1 10  2  0  0  0  0
  2  3  1  0  0  0  0
  3  4  2  0  0  0  0
  3 14  1  0  0  0  0
  4 15  1  0  0  0  0
  5 16  1  0  0  0  0
  5  4  1  0  0  0  0
  6  5  2  0  0  0  0
  7 12  2  0  0  0  0
  7  6  1  0  0  0  0
  8  6  1  0  0  0  0
  8  2  2  0  0  0  0
  9  1  1  0  0  0  0
 11  7  1  0  0  0  0
 13  8  1  0  0  0  0
 17 11  1  0  0  0  0
M  CHG  1   9  -1
M  END
