1
q = -1.0, confidence = 0.002

 15 15  0  0  0  0  0  0  0  0999 V2000
   -1.3640   -0.8569    0.4319 O   0  5  0  0  0  0  0  0  0  0  0  0
   -6.9696    1.3351    0.0740 O   0  0  0  0  0  0  0  0  0  0  0  0
   -6.8118   -1.1633   -0.4421 O   0  0  0  0  0  0  0  0  0  0  0  0
   -2.6938   -0.8817    0.2235 C   0  0  0  0  0  0  0  0  0  0  0  0
   -3.4987    0.2607    0.3510 C   0  0  0  0  0  0  0  0  0  0  0  0
   -4.8918    0.1778    0.1331 C   0  0  0  0  0  0  0  0  0  0  0  0
   -5.5009   -1.0720   -0.2238 C   0  0  0  0  0  0  0  0  0  0  0  0
   -4.6795   -2.2205   -0.3307 C   0  0  0  0  0  0  0  0  0  0  0  0
   -3.3099   -2.1243   -0.1005 C   0  0  0  0  0  0  0  0  0  0  0  0
   -5.7403    1.3508    0.2639 C   0  0  0  0  0  0  0  0  0  0  0  0
   -7.1731   -0.2224   -0.2964 H   0  0  0  0  0  0  0  0  0  0  0  0
   -3.0424    1.2173    0.6481 H   0  0  0  0  0  0  0  0  0  0  0  0
   -5.1515   -3.1785   -0.5921 H   0  0  0  0  0  0  0  0  0  0  0  0
   -2.6645   -3.0128   -0.1731 H   0  0  0  0  0  0  0  0  0  0  0  0
   -5.2316    2.3107    0.5500 H   0  0  0  0  0  0  0  0  0  0  0  0
  2 10  2  0  0  0  0
  3 11  1  0  0  0  0
  3  7  1  0  0  0  0
  4  5  1  0  0  0  0
  4  1  1  0  0  0  0
  5 12  1  0  0  0  0
  6 10  1  0  0  0  0
  6  5  2  0  0  0  0
  7  6  1  0  0  0  0
  8  7  2  0  0  0  0
  8  9  1  0  0  0  0
  9  4  2  0  0  0  0
 10 15  1  0  0  0  0
 13  8  1  0  0  0  0
 14  9  1  0  0  0  0
M  CHG  1   1  -1
M  END
