1
q = -1.0, confidence = 0.012

 10  9  0  0  0  0  0  0  0  0999 V2000
   -1.4825   -1.3308   -0.7271 O   0  0  0  0  0  1  0  0  0  0  0  0
   -2.4143   -1.9074    0.1270 C   0  0  0  0  0  0  0  0  0  0  0  0
   -2.8769   -2.8282   -0.3117 H   0  0  0  0  0  0  0  0  0  0  0  0
   -3.2720   -1.2116    0.3476 H   0  0  0  0  0  0  0  0  0  0  0  0
   -1.0327   -1.0772    1.9271 N   0  0  0  0  0  0  0  0  0  0  0  0
   -0.3927   -1.2951    2.6992 H   0  0  0  0  0  0  0  0  0  0  0  0
   -1.6876   -0.3320    2.2095 H   0  0  0  0  0  0  0  0  0  0  0  0
   -1.7452   -2.2760    1.4538 C   0  0  0  0  0  0  0  0  0  0  0  0
   -2.4783   -2.6731    2.1953 H   0  0  0  0  0  0  0  0  0  0  0  0
   -0.9813   -3.0594    1.2682 H   0  0  0  0  0  0  0  0  0  0  0  0
  1  2  1  0  0  0  0
  2  4  1  0  0  0  0
  2  8  1  0  0  0  0
  3  2  1  0  0  0  0
  5  7  1  0  0  0  0
  5  6  1  0  0  0  0
  8  5  1  0  0  0  0
  8  9  1  0  0  0  0
 10  8  1  0  0  0  0
M  END
