1
q = 0.0, confidence = 0.66

 20 21  0  0  0  0  0  0  0  0999 V2000
    1.5652   -0.2146    0.0001 O   0  5  0  0  0  0  0  0  0  0  0  0
    1.3935    2.0698   -0.0001 O   0  0  0  0  0  0  0  0  0  0  0  0
   -2.6976    1.8026    0.0000 N   0  0  0  0  0  0  0  0  0  0  0  0
   -3.2509    2.6663    0.0001 H   0  0  0  0  0  0  0  0  0  0  0  0
    0.9483    0.9258   -0.0000 C   0  0  0  0  0  0  0  0  0  0  0  0
   -0.5652    0.7364   -0.0000 C   0  0  0  0  0  0  0  0  0  0  0  0
   -1.3551    1.8935    0.0000 C   0  0  0  0  0  0  0  0  0  0  0  0
   -0.8757    2.8850    0.0000 H   0  0  0  0  0  0  0  0  0  0  0  0
   -3.3856    0.6026    0.0000 C   0  0  0  0  0  0  0  0  0  0  0  0
   -4.7971    0.5674    0.0000 C   0  0  0  0  0  0  0  0  0  0  0  0
   -5.3725    1.5058    0.0000 H   0  0  0  0  0  0  0  0  0  0  0  0
   -5.4424   -0.6661    0.0000 C   0  0  0  0  0  0  0  0  0  0  0  0
   -6.5417   -0.7012    0.0000 H   0  0  0  0  0  0  0  0  0  0  0  0
   -4.7004   -1.8751   -0.0000 C   0  0  0  0  0  0  0  0  0  0  0  0
   -5.2324   -2.8375   -0.0000 H   0  0  0  0  0  0  0  0  0  0  0  0
   -3.3124   -1.8490   -0.0000 C   0  0  0  0  0  3  0  0  0  0  0  0
   -2.7276   -2.7806   -0.0000 H   0  0  0  0  0  0  0  0  0  0  0  0
   -2.6121   -0.6083   -0.0000 C   0  0  0  0  0  0  0  0  0  0  0  0
   -1.1930   -0.5104   -0.0000 C   0  0  0  0  0  0  0  0  0  0  0  0
   -0.5581   -1.4102   -0.0001 H   0  0  0  0  0  0  0  0  0  0  0  0
  2  5  2  0  0  0  0
  3  4  1  0  0  0  0
  5  6  1  0  0  0  0
  5  1  1  0  0  0  0
  6 19  1  0  0  0  0
  6  7  2  0  0  0  0
  7  3  1  0  0  0  0
  7  8  1  0  0  0  0
  9 10  2  0  0  0  0
  9  3  1  0  0  0  0
 10 11  1  0  0  0  0
 12 10  1  0  0  0  0
 13 12  1  0  0  0  0
 14 12  2  0  0  0  0
 15 14  1  0  0  0  0
 16 14  1  0  0  0  0
 16 18  1  0  0  0  0
 17 16  1  0  0  0  0
 18  9  1  0  0  0  0
 19 18  2  0  0  0  0
 20 19  1  0  0  0  0
M  CHG  1   1  -1
M  END
