1
 OpenBabel05122313063D

 18 19  0  0  0  0  0  0  0  0999 V2000
    0.2668   -1.6184    0.1801 O   0  5  0  0  0  0  0  0  0  0  0  0
    0.8227    0.9369    0.1519 O   0  0  0  0  0  0  0  0  0  0  0  0
    4.9260   -2.5774    0.0984 O   0  0  0  0  0  0  0  0  0  0  0  0
    3.1873    0.6506    0.0641 C   0  0  0  0  0  0  0  0  0  0  0  0
    3.4656    2.0335    0.0278 C   0  0  0  0  0  0  0  0  0  0  0  0
    2.6251    2.7425    0.0198 H   0  0  0  0  0  0  0  0  0  0  0  0
    4.7934    2.4732   -0.0044 C   0  0  0  0  0  0  0  0  0  0  0  0
    5.0159    3.5504   -0.0347 H   0  0  0  0  0  0  0  0  0  0  0  0
    5.8440    1.5357   -0.0021 C   0  0  0  0  0  0  0  0  0  0  0  0
    6.8877    1.8852   -0.0281 H   0  0  0  0  0  0  0  0  0  0  0  0
    5.5696    0.1600    0.0302 C   0  0  0  0  0  0  0  0  0  0  0  0
    6.3651   -0.6002    0.0309 H   0  0  0  0  0  0  0  0  0  0  0  0
    4.2444   -0.2952    0.0630 C   0  0  0  0  0  0  0  0  0  0  0  0
    3.9723   -1.7835    0.0939 C   0  0  0  0  0  0  0  0  0  0  0  0
    2.5864   -2.2075    0.1185 C   0  0  0  0  0  0  0  0  0  0  0  0
    2.3863   -3.2876    0.1433 H   0  0  0  0  0  0  0  0  0  0  0  0
    1.5313   -1.3042    0.1120 C   0  0  0  0  0  0  0  0  0  0  0  0
    1.8145    0.1542    0.0972 C   0  0  0  0  0  0  0  0  0  0  0  0
  4 18  1  0  0  0  0
  5  4  2  0  0  0  0
  6  5  1  0  0  0  0
  7  9  2  0  0  0  0
  7  5  1  0  0  0  0
  8  7  1  0  0  0  0
  9 11  1  0  0  0  0
 10  9  1  0  0  0  0
 11 12  1  0  0  0  0
 11 13  2  0  0  0  0
 13  4  1  0  0  0  0
 13 14  1  0  0  0  0
 14  3  2  0  0  0  0
 14 15  1  0  0  0  0
 15 16  1  0  0  0  0
 17 15  2  0  0  0  0
 17  1  1  0  0  0  0
 18 17  1  0  0  0  0
 18  2  2  0  0  0  0
M  CHG  1   1  -1
M  END
