1
 OpenBabel05122313063D

 12 12  0  0  0  0  0  0  0  0999 V2000
    2.9653    1.0014   -1.0447 O   0  0  0  0  0  1  0  0  0  0  0  0
    3.9809    0.4467   -0.4628 N   0  0  0  0  0  0  0  0  0  0  0  0
    5.2235    0.6453   -1.0150 C   0  0  0  0  0  3  0  0  0  0  0  0
    5.2112    1.2596   -1.9240 H   0  0  0  0  0  0  0  0  0  0  0  0
    6.3594    0.0940   -0.4347 C   0  0  0  0  0  0  0  0  0  0  0  0
    7.3315    0.2811   -0.9123 H   0  0  0  0  0  0  0  0  0  0  0  0
    6.2529   -0.6843    0.7293 C   0  0  0  0  0  0  0  0  0  0  0  0
    7.1424   -1.1288    1.1964 H   0  0  0  0  0  0  0  0  0  0  0  0
    4.9760   -0.8779    1.2754 C   0  0  0  0  0  0  0  0  0  0  0  0
    4.8264   -1.4783    2.1838 H   0  0  0  0  0  0  0  0  0  0  0  0
    3.8550   -0.3128    0.6746 C   0  0  0  0  0  0  0  0  0  0  0  0
    2.8213   -0.4285    1.0306 H   0  0  0  0  0  0  0  0  0  0  0  0
  1  2  1  0  0  0  0
  2 11  1  0  0  0  0
  3  2  1  0  0  0  0
  3  5  1  0  0  0  0
  4  3  1  0  0  0  0
  5  7  2  0  0  0  0
  6  5  1  0  0  0  0
  7  8  1  0  0  0  0
  7  9  1  0  0  0  0
  9 10  1  0  0  0  0
 11 12  1  0  0  0  0
 11  9  2  0  0  0  0
M  END
