1
 OpenBabel05122313063D

 15 14  0  0  0  0  0  0  0  0999 V2000
    1.7829   -0.1566   -0.0816 O   0  5  0  0  0  0  0  0  0  0  0  0
    3.6456   -0.3956   -1.3313 O   0  0  0  0  0  0  0  0  0  0  0  0
    3.0191   -0.1774   -0.1756 C   0  0  0  0  0  0  0  0  0  0  0  0
    3.9577    0.0294    0.9614 C   0  0  0  0  0  0  0  0  0  0  0  0
    5.4322    0.0346    0.6663 C   0  0  0  0  0  0  0  0  0  0  0  0
    6.0186    0.2002    1.5890 H   0  0  0  0  0  0  0  0  0  0  0  0
    5.6885    0.8273   -0.0657 H   0  0  0  0  0  0  0  0  0  0  0  0
    5.7500   -0.9244    0.2091 H   0  0  0  0  0  0  0  0  0  0  0  0
    3.4300    0.1952    2.1959 C   0  0  0  0  0  3  0  0  0  0  0  0
    2.3422    0.1819    2.3500 H   0  0  0  0  0  0  0  0  0  0  0  0
    4.0775    0.3496    3.0720 H   0  0  0  0  0  0  0  0  0  0  0  0
    2.8272   -0.6360   -2.4961 C   0  0  0  0  0  0  0  0  0  0  0  0
    3.5321   -0.7290   -3.3394 H   0  0  0  0  0  0  0  0  0  0  0  0
    2.1110    0.1917   -2.6608 H   0  0  0  0  0  0  0  0  0  0  0  0
    2.2428   -1.5676   -2.3686 H   0  0  0  0  0  0  0  0  0  0  0  0
  2  3  1  0  0  0  0
  3  1  1  0  0  0  0
  3  4  2  0  0  0  0
  4  9  1  0  0  0  0
  5  4  1  0  0  0  0
  5  6  1  0  0  0  0
  7  5  1  0  0  0  0
  8  5  1  0  0  0  0
  9 10  1  0  0  0  0
  9 11  1  0  0  0  0
 12 15  1  0  0  0  0
 12  2  1  0  0  0  0
 13 12  1  0  0  0  0
 14 12  1  0  0  0  0
M  CHG  1   1  -1
M  END
