1
 OpenBabel05122313063D

 29 28  0  0  0  0  0  0  0  0999 V2000
    1.2080    0.1030    0.3046 O   0  0  0  0  0  1  0  0  0  0  0  0
    2.7339    0.0766    0.1464 P   0  0  0  0  0  4  0  0  0  0  0  0
    3.2041    1.2355   -0.9775 N   0  0  0  0  0  0  0  0  0  0  0  0
    3.3832    0.2571    1.6987 N   0  0  0  0  0  0  0  0  0  0  0  0
    3.5087   -1.3005   -0.4283 N   0  0  0  0  0  0  0  0  0  0  0  0
    2.2819    2.2136   -1.5359 C   0  0  0  0  0  0  0  0  0  0  0  0
    2.5115    3.2422   -1.1802 H   0  0  0  0  0  0  0  0  0  0  0  0
    1.2463    1.9547   -1.2684 H   0  0  0  0  0  0  0  0  0  0  0  0
    2.3442    2.1972   -2.6450 H   0  0  0  0  0  0  0  0  0  0  0  0
    4.5854    1.3950   -1.4008 C   0  0  0  0  0  0  0  0  0  0  0  0
    5.0240    2.3472   -1.0239 H   0  0  0  0  0  0  0  0  0  0  0  0
    4.6476    1.4094   -2.5117 H   0  0  0  0  0  0  0  0  0  0  0  0
    5.2101    0.5578   -1.0397 H   0  0  0  0  0  0  0  0  0  0  0  0
    4.8044    0.4960    1.8901 C   0  0  0  0  0  0  0  0  0  0  0  0
    5.1447    0.0166    2.8336 H   0  0  0  0  0  0  0  0  0  0  0  0
    5.0504    1.5821    1.9529 H   0  0  0  0  0  0  0  0  0  0  0  0
    5.3934    0.0555    1.0641 H   0  0  0  0  0  0  0  0  0  0  0  0
    2.5453    0.6184    2.8345 C   0  0  0  0  0  0  0  0  0  0  0  0
    2.8376    0.0174    3.7233 H   0  0  0  0  0  0  0  0  0  0  0  0
    1.4880    0.4081    2.5997 H   0  0  0  0  0  0  0  0  0  0  0  0
    2.6381    1.6965    3.0993 H   0  0  0  0  0  0  0  0  0  0  0  0
    4.0048   -2.3738    0.4199 C   0  0  0  0  0  0  0  0  0  0  0  0
    5.0839   -2.5637    0.2212 H   0  0  0  0  0  0  0  0  0  0  0  0
    3.4523   -3.3208    0.2322 H   0  0  0  0  0  0  0  0  0  0  0  0
    3.8822   -2.1054    1.4839 H   0  0  0  0  0  0  0  0  0  0  0  0
    3.5485   -1.5797   -1.8628 C   0  0  0  0  0  0  0  0  0  0  0  0
    4.5920   -1.5485   -2.2494 H   0  0  0  0  0  0  0  0  0  0  0  0
    2.9339   -0.8473   -2.4174 H   0  0  0  0  0  0  0  0  0  0  0  0
    3.1324   -2.5869   -2.0680 H   0  0  0  0  0  0  0  0  0  0  0  0
  2  1  1  0  0  0  0
  2  4  1  0  0  0  0
  3  2  1  0  0  0  0
  4 14  1  0  0  0  0
  4 18  1  0  0  0  0
  5  2  1  0  0  0  0
  5 22  1  0  0  0  0
  6  8  1  0  0  0  0
  6  7  1  0  0  0  0
  6  3  1  0  0  0  0
  9  6  1  0  0  0  0
 10 13  1  0  0  0  0
 10 11  1  0  0  0  0
 10  3  1  0  0  0  0
 12 10  1  0  0  0  0
 14 16  1  0  0  0  0
 14 15  1  0  0  0  0
 17 14  1  0  0  0  0
 18 21  1  0  0  0  0
 18 19  1  0  0  0  0
 20 18  1  0  0  0  0
 22 25  1  0  0  0  0
 23 22  1  0  0  0  0
 24 22  1  0  0  0  0
 26  5  1  0  0  0  0
 27 26  1  0  0  0  0
 28 26  1  0  0  0  0
 29 26  1  0  0  0  0
M  END
