2
 OpenBabel05122313063D

 45 47  0  0  0  0  0  0  0  0999 V2000
   -0.5307    0.1507    0.1435 P   0  0  2  0  0  0  0  0  0  0  0  0
    0.4059   -1.1112    0.3176 O   0  0  0  0  0  1  0  0  0  0  0  0
   -1.1982    0.5332    1.6289 N   0  0  0  0  0  0  0  0  0  0  0  0
   -1.7910   -0.2528   -1.1777 C   0  0  0  0  0  0  0  0  0  0  0  0
   -1.2168   -0.1211   -2.1203 H   0  0  0  0  0  0  0  0  0  0  0  0
   -2.2955   -1.6721   -0.9862 C   0  0  0  0  0  0  0  0  0  0  0  0
   -1.5956   -2.8845   -1.0107 C   0  0  0  0  0  0  0  0  0  0  0  0
   -0.5125   -2.9036   -1.1903 H   0  0  0  0  0  0  0  0  0  0  0  0
   -2.3042   -4.0777   -0.7847 C   0  0  0  0  0  0  0  0  0  0  0  0
   -1.7670   -5.0378   -0.8011 H   0  0  0  0  0  0  0  0  0  0  0  0
   -3.6900   -4.0581   -0.5389 C   0  0  0  0  0  0  0  0  0  0  0  0
   -4.2243   -5.0034   -0.3599 H   0  0  0  0  0  0  0  0  0  0  0  0
   -4.3991   -2.8470   -0.5344 C   0  0  0  0  0  0  0  0  0  0  0  0
   -5.4860   -2.8361   -0.3623 H   0  0  0  0  0  0  0  0  0  0  0  0
   -3.6984   -1.6518   -0.7656 C   0  0  0  0  0  0  0  0  0  0  0  0
   -4.1716   -0.2682   -0.8707 C   0  0  0  0  0  0  0  0  0  0  0  0
   -5.4686    0.2643   -0.7787 C   0  0  0  0  0  0  0  0  0  0  0  0
   -6.3293   -0.3906   -0.5757 H   0  0  0  0  0  0  0  0  0  0  0  0
   -5.6490    1.6443   -0.9576 C   0  0  0  0  0  0  0  0  0  0  0  0
   -6.6587    2.0764   -0.8884 H   0  0  0  0  0  0  0  0  0  0  0  0
   -4.5512    2.4798   -1.2350 C   0  0  0  0  0  0  0  0  0  0  0  0
   -4.7093    3.5580   -1.3866 H   0  0  0  0  0  0  0  0  0  0  0  0
   -3.2505    1.9528   -1.3309 C   0  0  0  0  0  0  0  0  0  0  0  0
   -2.3998    2.6101   -1.5603 H   0  0  0  0  0  0  0  0  0  0  0  0
   -3.0611    0.5792   -1.1382 C   0  0  0  0  0  0  0  0  0  0  0  0
   -1.9287    1.8190    1.8117 C   0  0  0  0  0  0  0  0  0  0  0  0
   -1.8720    2.3382    0.8342 H   0  0  0  0  0  0  0  0  0  0  0  0
   -3.4113    1.6084    2.1381 C   0  0  0  0  0  0  0  0  0  0  0  0
   -3.8976    0.9443    1.4013 H   0  0  0  0  0  0  0  0  0  0  0  0
   -3.9389    2.5820    2.1221 H   0  0  0  0  0  0  0  0  0  0  0  0
   -3.5514    1.1746    3.1492 H   0  0  0  0  0  0  0  0  0  0  0  0
   -1.2487    2.7190    2.8502 C   0  0  0  0  0  0  0  0  0  0  0  0
   -1.2974    2.2778    3.8664 H   0  0  0  0  0  0  0  0  0  0  0  0
   -1.7642    3.6990    2.8904 H   0  0  0  0  0  0  0  0  0  0  0  0
   -0.1884    2.9065    2.5975 H   0  0  0  0  0  0  0  0  0  0  0  0
   -1.1321   -0.3840    2.8067 C   0  0  0  0  0  0  0  0  0  0  0  0
   -1.8370    0.0785    3.5273 H   0  0  0  0  0  0  0  0  0  0  0  0
   -1.6708   -1.7877    2.5135 C   0  0  0  0  0  0  0  0  0  0  0  0
   -2.6748   -1.7379    2.0484 H   0  0  0  0  0  0  0  0  0  0  0  0
   -1.7551   -2.3601    3.4590 H   0  0  0  0  0  0  0  0  0  0  0  0
   -1.0036   -2.3460    1.8307 H   0  0  0  0  0  0  0  0  0  0  0  0
    0.2533   -0.3880    3.4584 C   0  0  0  0  0  0  0  0  0  0  0  0
    1.0240   -0.7484    2.7523 H   0  0  0  0  0  0  0  0  0  0  0  0
    0.2591   -1.0448    4.3514 H   0  0  0  0  0  0  0  0  0  0  0  0
    0.5417    0.6305    3.7841 H   0  0  0  0  0  0  0  0  0  0  0  0
  1  2  1  1  0  0  0
  1  3  1  0  0  0  0
  3 26  1  0  0  0  0
  3 36  1  0  0  0  0
  4 25  1  0  0  0  0
  4  6  1  0  0  0  0
  4  1  1  0  0  0  0
  5  4  1  0  0  0  0
  6 15  1  0  0  0  0
  7  6  2  0  0  0  0
  7  9  1  0  0  0  0
  8  7  1  0  0  0  0
  9 11  2  0  0  0  0
 10  9  1  0  0  0  0
 11 13  1  0  0  0  0
 11 12  1  0  0  0  0
 13 14  1  0  0  0  0
 15 13  2  0  0  0  0
 16 17  1  0  0  0  0
 16 15  1  0  0  0  0
 17 18  1  0  0  0  0
 19 20  1  0  0  0  0
 19 17  2  0  0  0  0
 21 19  1  0  0  0  0
 22 21  1  0  0  0  0
 23 21  2  0  0  0  0
 23 25  1  0  0  0  0
 24 23  1  0  0  0  0
 25 16  2  0  0  0  0
 26 28  1  0  0  0  0
 26 32  1  0  0  0  0
 27 26  1  0  0  0  0
 28 31  1  0  0  0  0
 29 28  1  0  0  0  0
 30 28  1  0  0  0  0
 32 34  1  0  0  0  0
 32 33  1  0  0  0  0
 35 32  1  0  0  0  0
 36 42  1  0  0  0  0
 36 37  1  0  0  0  0
 38 36  1  0  0  0  0
 38 40  1  0  0  0  0
 39 38  1  0  0  0  0
 41 38  1  0  0  0  0
 42 45  1  0  0  0  0
 42 44  1  0  0  0  0
 43 42  1  0  0  0  0
M  END
