2
 OpenBabel05122313063D

 22 24  0  0  1  0  0  0  0  0999 V2000
    3.9776    0.2496    1.3442 S   0  0  0  0  0  0  0  0  0  0  0  0
   -1.0707   -0.2852    1.1524 O   0  5  0  0  0  0  0  0  0  0  0  0
    8.8835   -0.9820    0.8718 O   0  0  0  0  0  0  0  0  0  0  0  0
    3.7967   -2.8985    1.5794 N   0  0  0  0  0  0  0  0  0  0  0  0
    0.1066   -0.8621    1.3639 C   0  0  0  0  0  0  0  0  0  0  0  0
    1.3044   -0.1078    1.3976 C   0  0  0  0  0  0  0  0  0  0  0  0
    1.2451    0.9853    1.3068 H   0  0  0  0  0  0  0  0  0  0  0  0
    2.5448   -0.7516    1.4511 C   0  0  1  0  0  3  0  0  0  0  0  0
    5.2867   -0.9236    1.2811 C   0  0  0  0  0  0  0  0  0  0  0  0
    6.5721   -0.4719    1.0883 C   0  0  0  0  0  3  0  0  0  0  0  0
    6.7918    0.5986    0.9532 H   0  0  0  0  0  0  0  0  0  0  0  0
    7.7226   -1.3817    1.0565 C   0  0  0  0  0  0  0  0  0  0  0  0
    7.4103   -2.8140    1.2575 C   0  0  0  0  0  0  0  0  0  0  0  0
    8.2686   -3.5029    1.2439 H   0  0  0  0  0  0  0  0  0  0  0  0
    6.1337   -3.2564    1.4387 C   0  0  0  0  0  0  0  0  0  0  0  0
    5.8907   -4.3212    1.5751 H   0  0  0  0  0  0  0  0  0  0  0  0
    4.9930   -2.3554    1.4463 C   0  0  0  0  0  0  0  0  0  0  0  0
    2.6361   -2.1795    1.5586 C   0  0  0  0  0  0  0  0  0  0  0  0
    1.4136   -2.9067    1.6365 C   0  0  0  0  0  0  0  0  0  0  0  0
    1.5007   -3.9982    1.7397 H   0  0  0  0  0  0  0  0  0  0  0  0
    0.1814   -2.2782    1.5397 C   0  0  0  0  0  0  0  0  0  0  0  0
   -0.7572   -2.8504    1.5569 H   0  0  0  0  0  0  0  0  0  0  0  0
  2  5  1  0  0  0  0
  3 12  2  0  0  0  0
  5  6  2  0  0  0  0
  5 21  1  0  0  0  0
  6  8  1  0  0  0  0
  7  6  1  0  0  0  0
  8  1  1  6  0  0  0
  8 18  1  0  0  0  0
  9  1  1  0  0  0  0
  9 17  2  0  0  0  0
 10  9  1  0  0  0  0
 11 10  1  0  0  0  0
 12 10  1  0  0  0  0
 12 13  1  0  0  0  0
 13 15  2  0  0  0  0
 14 13  1  0  0  0  0
 15 17  1  0  0  0  0
 15 16  1  0  0  0  0
 17  4  1  0  0  0  0
 18  4  2  0  0  0  0
 18 19  1  0  0  0  0
 19 20  1  0  0  0  0
 21 22  1  0  0  0  0
 21 19  2  0  0  0  0
M  CHG  1   2  -1
M  END
