2
 OpenBabel05122313063D

 10  9  0  0  0  0  0  0  0  0999 V2000
    3.0601   -0.1265   -0.5323 S   0  0  0  0  0  3  0  0  0  0  0  0
    1.9412    0.1896    0.5474 O   0  0  0  0  0  1  0  0  0  0  0  0
    3.8838   -1.5731    0.2004 C   0  0  0  0  0  0  0  0  0  0  0  0
    4.0119   -1.3977    1.2852 H   0  0  0  0  0  0  0  0  0  0  0  0
    4.8482   -1.7506   -0.3146 H   0  0  0  0  0  0  0  0  0  0  0  0
    3.1816   -2.4072    0.0184 H   0  0  0  0  0  0  0  0  0  0  0  0
    4.2813    1.1485   -0.0929 C   0  0  0  0  0  0  0  0  0  0  0  0
    3.8450    2.1008   -0.4477 H   0  0  0  0  0  0  0  0  0  0  0  0
    5.2312    0.9452   -0.6248 H   0  0  0  0  0  0  0  0  0  0  0  0
    4.4246    1.1617    1.0045 H   0  0  0  0  0  0  0  0  0  0  0  0
  1  7  1  0  0  0  0
  1  3  1  0  0  0  0
  1  2  1  0  0  0  0
  3  4  1  0  0  0  0
  5  3  1  0  0  0  0
  6  3  1  0  0  0  0
  7 10  1  0  0  0  0
  8  7  1  0  0  0  0
  9  7  1  0  0  0  0
M  END
