1
 OpenBabel05122313063D

 32 34  0  0  0  0  0  0  0  0999 V2000
    0.0073   -0.5057   -0.8823 O   0  5  0  0  0  0  0  0  0  0  0  0
    0.1769    1.9535   -0.3967 N   0  0  0  0  0  4  0  0  0  0  0  0
    0.5223    0.9696   -0.6057 H   0  0  0  0  0  0  0  0  0  0  0  0
   -1.2751   -0.4560   -0.7742 C   0  0  0  0  0  0  0  0  0  0  0  0
   -1.9405    0.8083   -0.4898 C   0  0  0  0  0  0  0  0  0  0  0  0
   -3.3951    0.8540   -0.3741 C   0  0  0  0  0  0  0  0  0  0  0  0
   -4.1277    2.0408   -0.1097 C   0  0  0  0  0  0  0  0  0  0  0  0
   -3.6049    3.0003    0.0124 H   0  0  0  0  0  0  0  0  0  0  0  0
   -5.5174    2.0302   -0.0001 C   0  0  0  0  0  0  0  0  0  0  0  0
   -6.0508    2.9705    0.2060 H   0  0  0  0  0  0  0  0  0  0  0  0
   -6.2430    0.8282   -0.1531 C   0  0  0  0  0  0  0  0  0  0  0  0
   -7.3394    0.8273   -0.0666 H   0  0  0  0  0  0  0  0  0  0  0  0
   -5.5543   -0.3511   -0.4173 C   0  0  0  0  0  0  0  0  0  0  0  0
   -6.0996   -1.2994   -0.5442 H   0  0  0  0  0  0  0  0  0  0  0  0
   -4.1398   -0.3648   -0.5321 C   0  0  0  0  0  0  0  0  0  0  0  0
   -3.4392   -1.5890   -0.8151 C   0  0  0  0  0  0  0  0  0  0  0  0
   -4.0379   -2.5052   -0.9455 H   0  0  0  0  0  0  0  0  0  0  0  0
   -2.0726   -1.6454   -0.9355 C   0  0  0  0  0  0  0  0  0  0  0  0
   -1.5345   -2.5771   -1.1604 H   0  0  0  0  0  0  0  0  0  0  0  0
   -1.1530    1.9682   -0.3070 C   0  0  0  0  0  0  0  0  0  0  0  0
   -1.6318    2.9306   -0.0697 H   0  0  0  0  0  0  0  0  0  0  0  0
    1.1035    2.9894   -0.2162 C   0  0  0  0  0  0  0  0  0  0  0  0
    0.7309    4.3225    0.0577 C   0  0  0  0  0  0  0  0  0  0  0  0
   -0.3281    4.6094    0.1297 H   0  0  0  0  0  0  0  0  0  0  0  0
    1.7241    5.2933    0.2372 C   0  0  0  0  0  0  0  0  0  0  0  0
    1.4304    6.3322    0.4499 H   0  0  0  0  0  0  0  0  0  0  0  0
    3.0842    4.9513    0.1458 C   0  0  0  0  0  0  0  0  0  0  0  0
    3.8570    5.7210    0.2885 H   0  0  0  0  0  0  0  0  0  0  0  0
    3.4496    3.6228   -0.1288 C   0  0  0  0  0  0  0  0  0  0  0  0
    4.5114    3.3437   -0.2000 H   0  0  0  0  0  0  0  0  0  0  0  0
    2.4706    2.6396   -0.3109 C   0  0  0  0  0  0  0  0  0  0  0  0
    2.7456    1.5904   -0.5081 H   0  0  0  0  0  0  0  0  0  0  0  0
  1  4  1  0  0  0  0
  2 20  2  0  0  0  0
  2 22  1  0  0  0  0
  3  2  1  0  0  0  0
  4  5  1  0  0  0  0
  5  6  2  0  0  0  0
  5 20  1  0  0  0  0
  6  7  1  0  0  0  0
  7  9  2  0  0  0  0
  7  8  1  0  0  0  0
  9 10  1  0  0  0  0
 11 12  1  0  0  0  0
 11  9  1  0  0  0  0
 13 11  2  0  0  0  0
 14 13  1  0  0  0  0
 15 13  1  0  0  0  0
 15  6  1  0  0  0  0
 16 15  2  0  0  0  0
 17 16  1  0  0  0  0
 18 16  1  0  0  0  0
 18  4  2  0  0  0  0
 19 18  1  0  0  0  0
 20 21  1  0  0  0  0
 22 23  1  0  0  0  0
 23 24  1  0  0  0  0
 23 25  2  0  0  0  0
 25 26  1  0  0  0  0
 27 25  1  0  0  0  0
 27 28  1  0  0  0  0
 29 27  2  0  0  0  0
 30 29  1  0  0  0  0
 31 22  2  0  0  0  0
 31 29  1  0  0  0  0
 32 31  1  0  0  0  0
M  CHG  1   1  -1
M  END
