1
 OpenBabel05122313063D

 40 41  0  0  0  0  0  0  0  0999 V2000
   -0.3385    0.0366    1.0089 O   0  0  0  0  0  1  0  0  0  0  0  0
    0.8861    0.4130    0.8636 C   0  0  0  0  0  3  0  0  0  0  0  0
    1.1524    1.7205    0.6850 N   0  0  0  0  0  0  0  0  0  0  0  0
    2.1266    1.9998    0.5547 H   0  0  0  0  0  0  0  0  0  0  0  0
    0.1184    2.7317    0.4472 C   0  0  0  0  0  0  0  0  0  0  0  0
   -0.8422    2.2524    0.7263 H   0  0  0  0  0  0  0  0  0  0  0  0
    0.3399    3.9606    1.3388 C   0  0  0  0  0  0  0  0  0  0  0  0
    1.3410    4.3967    1.1122 H   0  0  0  0  0  0  0  0  0  0  0  0
    0.3570    3.6501    2.4041 H   0  0  0  0  0  0  0  0  0  0  0  0
   -0.7452    5.0175    1.0905 C   0  0  0  0  0  0  0  0  0  0  0  0
   -1.7260    4.6081    1.4194 H   0  0  0  0  0  0  0  0  0  0  0  0
   -0.5530    5.9109    1.7199 H   0  0  0  0  0  0  0  0  0  0  0  0
   -0.8308    5.4045   -0.3919 C   0  0  0  0  0  0  0  0  0  0  0  0
   -1.6496    6.1366   -0.5497 H   0  0  0  0  0  0  0  0  0  0  0  0
    0.1106    5.9193   -0.6905 H   0  0  0  0  0  0  0  0  0  0  0  0
   -1.0376    4.1709   -1.2798 C   0  0  0  0  0  0  0  0  0  0  0  0
   -1.0556    4.4566   -2.3516 H   0  0  0  0  0  0  0  0  0  0  0  0
   -2.0283    3.7149   -1.0622 H   0  0  0  0  0  0  0  0  0  0  0  0
    0.0476    3.1142   -1.0403 C   0  0  0  0  0  0  0  0  0  0  0  0
   -0.1449    2.2016   -1.6404 H   0  0  0  0  0  0  0  0  0  0  0  0
    1.0399    3.5136   -1.3552 H   0  0  0  0  0  0  0  0  0  0  0  0
    1.8636   -0.5068    0.9328 N   0  0  0  0  0  0  0  0  0  0  0  0
    1.4957   -1.4735    0.9561 H   0  0  0  0  0  0  0  0  0  0  0  0
    3.2574   -0.3162    0.5395 C   0  0  0  0  0  0  0  0  0  0  0  0
    3.6137    0.6412    0.9900 H   0  0  0  0  0  0  0  0  0  0  0  0
    4.1108   -1.4440    1.1361 C   0  0  0  0  0  0  0  0  0  0  0  0
    3.9940   -1.4541    2.2393 H   0  0  0  0  0  0  0  0  0  0  0  0
    3.7109   -2.4135    0.7616 H   0  0  0  0  0  0  0  0  0  0  0  0
    5.5843   -1.3053    0.7344 C   0  0  0  0  0  0  0  0  0  0  0  0
    6.1663   -2.1536    1.1492 H   0  0  0  0  0  0  0  0  0  0  0  0
    6.0040   -0.3849    1.1995 H   0  0  0  0  0  0  0  0  0  0  0  0
    5.7518   -1.2254   -0.7885 C   0  0  0  0  0  0  0  0  0  0  0  0
    6.8205   -1.0844   -1.0517 H   0  0  0  0  0  0  0  0  0  0  0  0
    5.4419   -2.1933   -1.2418 H   0  0  0  0  0  0  0  0  0  0  0  0
    4.8994   -0.0973   -1.3836 C   0  0  0  0  0  0  0  0  0  0  0  0
    4.9937   -0.0751   -2.4886 H   0  0  0  0  0  0  0  0  0  0  0  0
    5.2830    0.8833   -1.0200 H   0  0  0  0  0  0  0  0  0  0  0  0
    3.4247   -0.2441   -0.9911 C   0  0  0  0  0  0  0  0  0  0  0  0
    2.8135    0.5850   -1.4040 H   0  0  0  0  0  0  0  0  0  0  0  0
    3.0000   -1.1760   -1.4231 H   0  0  0  0  0  0  0  0  0  0  0  0
  2 22  1  0  0  0  0
  2  1  1  0  0  0  0
  3  2  1  0  0  0  0
  4  3  1  0  0  0  0
  5  3  1  0  0  0  0
  5  6  1  0  0  0  0
  5  7  1  0  0  0  0
  7  9  1  0  0  0  0
  8  7  1  0  0  0  0
 10  7  1  0  0  0  0
 10 11  1  0  0  0  0
 10 12  1  0  0  0  0
 13 10  1  0  0  0  0
 14 13  1  0  0  0  0
 15 13  1  0  0  0  0
 16 18  1  0  0  0  0
 16 19  1  0  0  0  0
 16 13  1  0  0  0  0
 17 16  1  0  0  0  0
 19  5  1  0  0  0  0
 20 19  1  0  0  0  0
 21 19  1  0  0  0  0
 22 23  1  0  0  0  0
 24 22  1  0  0  0  0
 24 25  1  0  0  0  0
 24 26  1  0  0  0  0
 26 27  1  0  0  0  0
 28 26  1  0  0  0  0
 29 26  1  0  0  0  0
 29 30  1  0  0  0  0
 29 31  1  0  0  0  0
 32 29  1  0  0  0  0
 33 32  1  0  0  0  0
 34 32  1  0  0  0  0
 35 37  1  0  0  0  0
 35 38  1  0  0  0  0
 35 32  1  0  0  0  0
 36 35  1  0  0  0  0
 38 24  1  0  0  0  0
 39 38  1  0  0  0  0
 40 38  1  0  0  0  0
M  END
