1
 OpenBabel05122313063D

 12 12  0  0  0  0  0  0  0  0999 V2000
    0.1303   -0.8447   -0.3103 O   0  5  0  0  0  0  0  0  0  0  0  0
    1.2754   -1.3100   -0.7589 C   0  0  0  0  0  0  0  0  0  0  0  0
    2.5158   -0.6329   -0.6161 C   0  0  0  0  0  0  0  0  0  0  0  0
    3.7497   -1.1153   -1.0503 C   0  0  0  0  0  0  0  0  0  0  0  0
    4.6684   -0.5337   -0.8905 H   0  0  0  0  0  0  0  0  0  0  0  0
    3.7800   -2.3548   -1.7072 C   0  0  0  0  0  0  0  0  0  0  0  0
    4.7349   -2.7631   -2.0671 H   0  0  0  0  0  0  0  0  0  0  0  0
    2.5860   -3.0661   -1.9158 C   0  0  0  0  0  0  0  0  0  0  0  0
    2.5963   -4.0305   -2.4430 H   0  0  0  0  0  0  0  0  0  0  0  0
    1.3693   -2.5542   -1.4539 C   0  0  0  0  0  0  0  0  0  0  0  0
    2.3821    1.0827    0.2517 Br  0  0  0  0  0  0  0  0  0  0  0  0
   -0.2403   -3.5229   -1.7551 Br  0  0  0  0  0  0  0  0  0  0  0  0
  2  3  1  0  0  0  0
  2  1  1  0  0  0  0
  3 11  1  0  0  0  0
  4  5  1  0  0  0  0
  4  3  2  0  0  0  0
  6  4  1  0  0  0  0
  7  6  1  0  0  0  0
  8  6  2  0  0  0  0
  8 10  1  0  0  0  0
  9  8  1  0  0  0  0
 10  2  2  0  0  0  0
 12 10  1  0  0  0  0
M  CHG  1   1  -1
M  END
