2
 OpenBabel05122313063D

 14 14  0  0  0  0  0  0  0  0999 V2000
   -2.3075    0.4511   -0.6978 S   0  0  0  0  0  3  0  0  0  0  0  0
   -1.1836    0.4480    0.4289 O   0  0  0  0  0  1  0  0  0  0  0  0
   -2.9787    2.1754   -0.4320 C   0  0  0  0  0  0  0  0  0  0  0  0
   -2.1899    2.6431    0.1884 H   0  0  0  0  0  0  0  0  0  0  0  0
   -3.0146    2.6813   -1.4162 H   0  0  0  0  0  0  0  0  0  0  0  0
   -4.3289    2.0663    0.2886 C   0  0  0  0  0  0  0  0  0  0  0  0
   -4.5147    2.9625    0.9145 H   0  0  0  0  0  0  0  0  0  0  0  0
   -5.1513    2.0138   -0.4556 H   0  0  0  0  0  0  0  0  0  0  0  0
   -4.2954    0.7704    1.1108 C   0  0  0  0  0  0  0  0  0  0  0  0
   -3.6045    0.8739    1.9735 H   0  0  0  0  0  0  0  0  0  0  0  0
   -5.2932    0.4984    1.5104 H   0  0  0  0  0  0  0  0  0  0  0  0
   -3.7623   -0.2957    0.1624 C   0  0  0  0  0  0  0  0  0  0  0  0
   -4.4790   -0.5524   -0.6475 H   0  0  0  0  0  0  0  0  0  0  0  0
   -3.3776   -1.2320    0.6065 H   0  0  0  0  0  0  0  0  0  0  0  0
  1  3  1  0  0  0  0
  1 12  1  0  0  0  0
  1  2  1  0  0  0  0
  3  4  1  0  0  0  0
  3  6  1  0  0  0  0
  5  3  1  0  0  0  0
  6  7  1  0  0  0  0
  6  9  1  0  0  0  0
  8  6  1  0  0  0  0
  9 11  1  0  0  0  0
  9 10  1  0  0  0  0
 12 14  1  0  0  0  0
 12  9  1  0  0  0  0
 13 12  1  0  0  0  0
M  END
