2
 OpenBabel05122313063D

 15 15  0  0  0  0  0  0  0  0999 V2000
   -6.4221   -2.2158    2.1735 Cl  0  0  0  0  0  0  0  0  0  0  0  0
   -1.7634   -1.1628   -0.1905 O   0  5  0  0  0  0  0  0  0  0  0  0
   -2.1954   -0.7643   -2.3737 O   0  0  0  0  0  0  0  0  0  0  0  0
   -4.5482   -0.8809   -3.2717 O   0  0  0  0  0  0  0  0  0  0  0  0
   -3.5353   -0.7745   -3.1956 H   0  0  0  0  0  0  0  0  0  0  0  0
   -2.5531   -1.0939   -1.1837 C   0  0  0  0  0  0  0  0  0  0  0  0
   -4.0092   -1.3468   -0.9603 C   0  0  0  0  0  0  0  0  0  0  0  0
   -4.9380   -1.2025   -2.0397 C   0  0  0  0  0  0  0  0  0  0  0  0
   -6.3178   -1.4002   -1.7775 C   0  0  0  0  0  0  0  0  0  0  0  0
   -7.0242   -1.2876   -2.6125 H   0  0  0  0  0  0  0  0  0  0  0  0
   -6.7647   -1.7252   -0.4977 C   0  0  0  0  0  0  0  0  0  0  0  0
   -7.8366   -1.8707   -0.3011 H   0  0  0  0  0  0  0  0  0  0  0  0
   -5.8409   -1.8583    0.5611 C   0  0  0  0  0  0  0  0  0  0  0  0
   -4.4759   -1.6780    0.3312 C   0  0  0  0  0  0  0  0  0  0  0  0
   -3.7404   -1.7803    1.1416 H   0  0  0  0  0  0  0  0  0  0  0  0
  3  6  2  0  0  0  0
  4  5  1  0  0  0  0
  4  8  1  0  0  0  0
  6  7  1  0  0  0  0
  6  2  1  0  0  0  0
  7 14  1  0  0  0  0
  8  9  1  0  0  0  0
  8  7  2  0  0  0  0
  9 11  2  0  0  0  0
 10  9  1  0  0  0  0
 11 12  1  0  0  0  0
 11 13  1  0  0  0  0
 13  1  1  0  0  0  0
 14 13  2  0  0  0  0
 14 15  1  0  0  0  0
M  CHG  1   2  -1
M  END
