1
 OpenBabel05122313063D

 30 31  0  0  0  0  0  0  0  0999 V2000
    0.2944    0.5663    0.6230 O   0  5  0  0  0  0  0  0  0  0  0  0
    2.8442    1.4473    0.5922 O   0  0  0  0  0  0  0  0  0  0  0  0
   -2.2170    0.9434    0.1541 N   0  0  0  0  0  4  0  0  0  0  0  0
   -1.3706    0.3539    0.3948 H   0  0  0  0  0  0  0  0  0  0  0  0
   -3.5070    0.3770    0.1422 C   0  0  0  0  0  0  0  0  0  0  0  0
   -4.8681   -1.6341    0.0901 C   0  0  0  0  0  0  0  0  0  0  0  0
   -4.9385   -2.7318    0.0617 H   0  0  0  0  0  0  0  0  0  0  0  0
   -5.9306    0.5485    0.1374 C   0  0  0  0  0  0  0  0  0  0  0  0
   -6.8391    1.1690    0.1601 H   0  0  0  0  0  0  0  0  0  0  0  0
    2.0954    3.6445   -0.1649 C   0  0  0  0  0  0  0  0  0  0  0  0
    3.1187    4.0433   -0.1992 H   0  0  0  0  0  0  0  0  0  0  0  0
   -0.2840    4.0346   -0.4802 C   0  0  0  0  0  0  0  0  0  0  0  0
   -1.1291    4.6864   -0.7509 H   0  0  0  0  0  0  0  0  0  0  0  0
   -0.5485    2.6781   -0.1031 C   0  0  0  0  0  0  0  0  0  0  0  0
   -4.6754    1.1682    0.1644 C   0  0  0  0  0  0  0  0  0  0  0  0
   -4.6121    2.2641    0.2279 H   0  0  0  0  0  0  0  0  0  0  0  0
   -1.8792    2.1955   -0.1357 C   0  0  0  0  0  0  0  0  0  0  0  0
   -2.6851    2.8823   -0.4451 H   0  0  0  0  0  0  0  0  0  0  0  0
    1.0134    4.5033   -0.5129 C   0  0  0  0  0  0  0  0  0  0  0  0
    1.2270    5.5407   -0.8074 H   0  0  0  0  0  0  0  0  0  0  0  0
    0.5346    1.7818    0.2688 C   0  0  0  0  0  0  0  0  0  0  0  0
   -6.0345   -0.8521    0.0985 C   0  0  0  0  0  0  0  0  0  0  0  0
   -7.0244   -1.3317    0.0820 H   0  0  0  0  0  0  0  0  0  0  0  0
   -3.6049   -1.0305    0.1122 C   0  0  0  0  0  0  0  0  0  0  0  0
   -2.6804   -1.6283    0.0883 H   0  0  0  0  0  0  0  0  0  0  0  0
    1.8789    2.3242    0.2215 C   0  0  0  0  0  0  0  0  0  0  0  0
    4.1956    1.8459    0.4774 C   0  0  0  0  0  0  0  0  0  0  0  0
    4.4530    2.1177   -0.5704 H   0  0  0  0  0  0  0  0  0  0  0  0
    4.8052    0.9766    0.7860 H   0  0  0  0  0  0  0  0  0  0  0  0
    4.4309    2.7079    1.1420 H   0  0  0  0  0  0  0  0  0  0  0  0
  3  4  1  0  0  0  0
  5  3  1  0  0  0  0
  5 15  1  0  0  0  0
  6 22  2  0  0  0  0
  6 24  1  0  0  0  0
  7  6  1  0  0  0  0
  8  9  1  0  0  0  0
  8 15  2  0  0  0  0
 10 26  1  0  0  0  0
 11 10  1  0  0  0  0
 12 14  2  0  0  0  0
 13 12  1  0  0  0  0
 14 21  1  0  0  0  0
 15 16  1  0  0  0  0
 17 14  1  0  0  0  0
 17  3  2  0  0  0  0
 18 17  1  0  0  0  0
 19 12  1  0  0  0  0
 19 10  2  0  0  0  0
 20 19  1  0  0  0  0
 21  1  1  0  0  0  0
 22  8  1  0  0  0  0
 23 22  1  0  0  0  0
 24  5  2  0  0  0  0
 25 24  1  0  0  0  0
 26 21  2  0  0  0  0
 26  2  1  0  0  0  0
 27  2  1  0  0  0  0
 27 29  1  0  0  0  0
 27 30  1  0  0  0  0
 28 27  1  0  0  0  0
M  CHG  1   1  -1
M  END
