2
 OpenBabel05122313063D

  4  3  0  0  0  0  0  0  0  0999 V2000
    3.0929    0.5683    0.0335 N   0  0  0  0  0  0  0  0  0  0  0  0
    2.9076   -0.7766    0.0507 O   0  0  0  0  0  1  0  0  0  0  0  0
    3.2434    1.0020    0.9610 H   0  0  0  0  0  0  0  0  0  0  0  0
    3.7093    0.9217   -0.7168 H   0  0  0  0  0  0  0  0  0  0  0  0
  1  2  1  0  0  0  0
  1  3  1  0  0  0  0
  4  1  1  0  0  0  0
M  END
