2
 OpenBabel05122313063D

 15 14  0  0  0  0  0  0  0  0999 V2000
    2.5880   -0.8939    0.5102 C   0  0  0  0  0  0  0  0  0  0  0  0
    1.3248   -1.2488    0.7044 O   0  5  0  0  0  0  0  0  0  0  0  0
    3.5401   -1.4980    0.9681 O   0  0  0  0  0  0  0  0  0  0  0  0
    2.7970    0.4143   -0.3124 C   0  0  0  0  0  0  0  0  0  0  0  0
    4.0187    0.2754   -1.2191 C   0  0  0  0  0  0  0  0  0  0  0  0
    3.8676   -0.5130   -1.9862 H   0  0  0  0  0  0  0  0  0  0  0  0
    4.8823   -0.0382   -0.6031 H   0  0  0  0  0  0  0  0  0  0  0  0
    4.2629    1.2306   -1.7264 H   0  0  0  0  0  0  0  0  0  0  0  0
    2.9650    1.5603    0.6918 C   0  0  0  0  0  0  0  0  0  0  0  0
    3.1352    2.5268    0.1717 H   0  0  0  0  0  0  0  0  0  0  0  0
    3.8422    1.3547    1.3329 H   0  0  0  0  0  0  0  0  0  0  0  0
    2.0773    1.6518    1.3465 H   0  0  0  0  0  0  0  0  0  0  0  0
    1.5543    0.6651   -1.1352 N   0  0  0  0  0  0  0  0  0  0  0  0
    1.7107    0.3001   -2.0875 H   0  0  0  0  0  0  0  0  0  0  0  0
    1.4230    1.6793   -1.2624 H   0  0  0  0  0  0  0  0  0  0  0  0
  1  2  1  0  0  0  0
  1  3  2  0  0  0  0
  4  1  1  0  0  0  0
  4  9  1  0  0  0  0
  5  7  1  0  0  0  0
  5  4  1  0  0  0  0
  6  5  1  0  0  0  0
  8  5  1  0  0  0  0
  9 11  1  0  0  0  0
  9 12  1  0  0  0  0
 10  9  1  0  0  0  0
 13  4  1  0  0  0  0
 14 13  1  0  0  0  0
 15 13  1  0  0  0  0
M  CHG  1   2  -1
M  END
