4
 OpenBabel05122313063D

 12 12  0  0  0  0  0  0  0  0999 V2000
    0.3430    2.3629    1.0462 Cl  0  0  0  0  0  0  0  0  0  0  0  0
    3.3318    3.0663    0.2723 Cl  0  0  0  0  0  0  0  0  0  0  0  0
    5.3064    0.7610   -0.5611 Cl  0  0  0  0  0  0  0  0  0  0  0  0
   -0.2471   -0.5044    0.9472 O   0  0  0  0  0  0  0  0  0  0  0  0
    0.9974   -0.2216    0.5964 C   0  0  0  0  0  0  0  0  0  0  0  0
    1.4607    1.1204    0.6036 C   0  0  0  0  0  0  0  0  0  0  0  0
    2.7905    1.4272    0.2486 C   0  0  0  0  0  0  0  0  0  0  0  0
    3.6754    0.3912   -0.1332 C   0  0  0  0  0  0  0  0  0  0  0  0
    1.2915   -2.8697    0.1325 Cl  0  0  0  0  0  0  0  0  0  0  0  0
    4.2889   -2.2156   -0.6468 Cl  0  0  0  0  0  0  0  0  0  0  0  0
    1.8887   -1.2484    0.1891 C   0  0  0  0  0  0  0  0  0  0  0  0
    3.2203   -0.9486   -0.1649 C   0  0  0  0  0  0  0  0  0  0  0  0
  3  8  1  0  0  0  0
  5  6  1  0  0  0  0
  5  4  1  0  0  0  0
  6  1  1  0  0  0  0
  7  2  1  0  0  0  0
  7  6  2  0  0  0  0
  8  7  1  0  0  0  0
  9 11  1  0  0  0  0
 10 12  1  0  0  0  0
 11  5  2  0  0  0  0
 12  8  2  0  0  0  0
 12 11  1  0  0  0  0
M  END
