2
 OpenBabel05122313063D

 63 66  0  0  1  0  0  0  0  0999 V2000
    0.3280    2.1523   -1.6249 Si  0  0  0  0  0  0  0  0  0  0  0  0
    1.5271    0.1845   -0.1543 O   0  0  0  0  0  1  0  0  0  0  0  0
   -1.2587    2.9011   -1.4328 N   0  0  0  0  0  0  0  0  0  0  0  0
    0.4210    1.0416   -0.0176 C   0  0  2  0  0  0  0  0  0  0  0  0
   -0.8996    0.2743   -0.0303 C   0  0  0  0  0  0  0  0  0  0  0  0
   -2.1193    0.8678   -0.3511 C   0  0  0  0  0  0  0  0  0  0  0  0
   -2.2239    2.3204   -0.8154 C   0  0  0  0  0  0  0  0  0  0  0  0
    0.5850    1.9456    1.2116 C   0  0  0  0  0  0  0  0  0  0  0  0
   -0.4444    2.1849    2.1432 C   0  0  0  0  0  0  0  0  0  0  0  0
   -1.4231    1.7030    2.0106 H   0  0  0  0  0  0  0  0  0  0  0  0
   -0.2325    3.0244    3.2491 C   0  0  0  0  0  0  0  0  0  0  0  0
   -1.0515    3.1922    3.9654 H   0  0  0  0  0  0  0  0  0  0  0  0
    1.0127    3.6385    3.4458 C   0  0  0  0  0  0  0  0  0  0  0  0
    1.1784    4.2956    4.3128 H   0  0  0  0  0  0  0  0  0  0  0  0
    2.0467    3.4065    2.5230 C   0  0  0  0  0  0  0  0  0  0  0  0
    3.0288    3.8845    2.6624 H   0  0  0  0  0  0  0  0  0  0  0  0
    1.8339    2.5718    1.4184 C   0  0  0  0  0  0  0  0  0  0  0  0
    2.6439    2.3953    0.6972 H   0  0  0  0  0  0  0  0  0  0  0  0
   -0.8580   -1.1446    0.4049 C   0  0  0  0  0  0  0  0  0  0  0  0
   -0.2983   -1.4788    1.6590 C   0  0  0  0  0  0  0  0  0  0  0  0
    0.1172   -0.6797    2.2887 H   0  0  0  0  0  0  0  0  0  0  0  0
   -0.3104   -2.8029    2.1195 C   0  0  0  0  0  0  0  0  0  0  0  0
    0.1071   -3.0381    3.1107 H   0  0  0  0  0  0  0  0  0  0  0  0
   -0.8609   -3.8235    1.3261 C   0  0  0  0  0  0  0  0  0  0  0  0
   -0.8675   -4.8634    1.6864 H   0  0  0  0  0  0  0  0  0  0  0  0
   -1.3979   -3.5075    0.0662 C   0  0  0  0  0  0  0  0  0  0  0  0
   -1.8179   -4.3006   -0.5707 H   0  0  0  0  0  0  0  0  0  0  0  0
   -1.3987   -2.1810   -0.3878 C   0  0  0  0  0  0  0  0  0  0  0  0
   -1.8237   -1.9378   -1.3722 H   0  0  0  0  0  0  0  0  0  0  0  0
   -3.3007    0.0858   -0.2450 C   0  0  0  0  0  0  0  0  0  0  0  0
   -4.3020   -0.6256   -0.1256 C   0  0  0  0  0  0  0  0  0  0  0  0
   -5.4281   -1.4806    0.0157 C   0  0  0  0  0  0  0  0  0  0  0  0
   -5.2634   -2.7921    0.5370 C   0  0  0  0  0  0  0  0  0  0  0  0
   -4.2563   -3.1240    0.8298 H   0  0  0  0  0  0  0  0  0  0  0  0
   -6.3674   -3.6404    0.6736 C   0  0  0  0  0  0  0  0  0  0  0  0
   -6.2273   -4.6540    1.0793 H   0  0  0  0  0  0  0  0  0  0  0  0
   -7.6501   -3.2049    0.2987 C   0  0  0  0  0  0  0  0  0  0  0  0
   -8.5154   -3.8758    0.4093 H   0  0  0  0  0  0  0  0  0  0  0  0
   -7.8244   -1.9088   -0.2161 C   0  0  0  0  0  0  0  0  0  0  0  0
   -8.8274   -1.5634   -0.5097 H   0  0  0  0  0  0  0  0  0  0  0  0
   -6.7287   -1.0507   -0.3582 C   0  0  0  0  0  0  0  0  0  0  0  0
   -6.8614   -0.0352   -0.7595 H   0  0  0  0  0  0  0  0  0  0  0  0
   -3.5269    3.1194   -0.5653 C   0  0  0  0  0  0  0  0  0  0  0  0
   -4.6045    2.6827   -1.5871 C   0  0  0  0  0  0  0  0  0  0  0  0
   -4.8838    1.6192   -1.4762 H   0  0  0  0  0  0  0  0  0  0  0  0
   -4.2413    2.8412   -2.6225 H   0  0  0  0  0  0  0  0  0  0  0  0
   -5.5177    3.2982   -1.4479 H   0  0  0  0  0  0  0  0  0  0  0  0
   -4.0276    2.9230    0.8817 C   0  0  0  0  0  0  0  0  0  0  0  0
   -4.2719    1.8694    1.1121 H   0  0  0  0  0  0  0  0  0  0  0  0
   -4.9466    3.5241    1.0389 H   0  0  0  0  0  0  0  0  0  0  0  0
   -3.2693    3.2754    1.6102 H   0  0  0  0  0  0  0  0  0  0  0  0
   -3.2372    4.6151   -0.7827 C   0  0  0  0  0  0  0  0  0  0  0  0
   -2.4497    4.9726   -0.0901 H   0  0  0  0  0  0  0  0  0  0  0  0
   -4.1606    5.2025   -0.6030 H   0  0  0  0  0  0  0  0  0  0  0  0
   -2.8800    4.8089   -1.8107 H   0  0  0  0  0  0  0  0  0  0  0  0
    1.6339    3.4917   -1.7053 C   0  0  0  0  0  0  0  0  0  0  0  0
    1.4738    4.0707   -2.6384 H   0  0  0  0  0  0  0  0  0  0  0  0
    2.6483    3.0451   -1.7355 H   0  0  0  0  0  0  0  0  0  0  0  0
    1.5619    4.1896   -0.8499 H   0  0  0  0  0  0  0  0  0  0  0  0
    0.3644    1.0904   -3.1790 C   0  0  0  0  0  0  0  0  0  0  0  0
    0.1122    1.7218   -4.0552 H   0  0  0  0  0  0  0  0  0  0  0  0
   -0.3710    0.2637   -3.1289 H   0  0  0  0  0  0  0  0  0  0  0  0
    1.3775    0.6709   -3.3357 H   0  0  0  0  0  0  0  0  0  0  0  0
  1  3  1  0  0  0  0
  1  4  1  0  0  0  0
  3  7  2  0  0  0  0
  4  2  1  6  0  0  0
  4  8  1  0  0  0  0
  5  4  1  0  0  0  0
  5 19  1  0  0  0  0
  6 30  1  0  0  0  0
  6  5  2  0  0  0  0
  7 43  1  0  0  0  0
  7  6  1  0  0  0  0
  8 17  2  0  0  0  0
  8  9  1  0  0  0  0
  9 11  2  0  0  0  0
 10  9  1  0  0  0  0
 11 13  1  0  0  0  0
 11 12  1  0  0  0  0
 13 14  1  0  0  0  0
 15 16  1  0  0  0  0
 15 13  2  0  0  0  0
 17 15  1  0  0  0  0
 18 17  1  0  0  0  0
 19 20  1  0  0  0  0
 20 22  2  0  0  0  0
 20 21  1  0  0  0  0
 22 23  1  0  0  0  0
 24 25  1  0  0  0  0
 24 22  1  0  0  0  0
 26 24  2  0  0  0  0
 27 26  1  0  0  0  0
 28 26  1  0  0  0  0
 28 19  2  0  0  0  0
 29 28  1  0  0  0  0
 30 31  3  0  0  0  0
 31 32  1  0  0  0  0
 32 33  1  0  0  0  0
 33 35  2  0  0  0  0
 33 34  1  0  0  0  0
 35 36  1  0  0  0  0
 37 38  1  0  0  0  0
 37 35  1  0  0  0  0
 39 37  2  0  0  0  0
 40 39  1  0  0  0  0
 41 39  1  0  0  0  0
 41 32  2  0  0  0  0
 42 41  1  0  0  0  0
 43 48  1  0  0  0  0
 44 45  1  0  0  0  0
 44 47  1  0  0  0  0
 44 43  1  0  0  0  0
 46 44  1  0  0  0  0
 48 50  1  0  0  0  0
 48 49  1  0  0  0  0
 48 51  1  0  0  0  0
 52 54  1  0  0  0  0
 52 43  1  0  0  0  0
 52 53  1  0  0  0  0
 55 52  1  0  0  0  0
 56  1  1  0  0  0  0
 56 59  1  0  0  0  0
 57 56  1  0  0  0  0
 58 56  1  0  0  0  0
 60 62  1  0  0  0  0
 60  1  1  0  0  0  0
 61 60  1  0  0  0  0
 63 60  1  0  0  0  0
M  END
