9
 OpenBabel05122313063D

  9  8  0  0  0  0  0  0  0  0999 V2000
   -0.3403    3.1142   -1.0011 S   0  0  0  0  0  0  0  0  0  0  0  0
    1.1796    4.0836   -0.3715 C   0  0  0  0  0  0  0  0  0  0  0  0
   -0.6489    2.1283    0.0739 O   0  0  0  0  0  0  0  0  0  0  0  0
    0.2333    2.2903   -2.3089 O   0  0  0  0  0  0  0  0  0  0  0  0
   -1.3081    4.1070   -1.4677 O   0  0  0  0  0  0  0  0  0  0  0  0
    2.0052    3.2716    0.2858 F   0  0  0  0  0  0  0  0  0  0  0  0
    0.7367    5.0390    0.4486 F   0  0  0  0  0  0  0  0  0  0  0  0
    1.8050    4.6293   -1.4128 F   0  0  0  0  0  0  0  0  0  0  0  0
    0.8724    1.0683   -1.8932 O   0  0  0  0  0  0  0  0  0  0  0  0
  1  2  1  0  0  0  0
  1  3  1  0  0  0  0
  2  6  1  0  0  0  0
  2  7  1  0  0  0  0
  4  9  1  0  0  0  0
  4  1  1  0  0  0  0
  5  1  1  0  0  0  0
  8  2  1  0  0  0  0
M  END
