1
 OpenBabel05122313063D

 23 23  0  0  0  0  0  0  0  0999 V2000
    1.1820    0.2446    0.6124 O   0  5  0  0  0  0  0  0  0  0  0  0
   -1.5029    4.0065   -0.9641 O   0  0  0  0  0  0  0  0  0  0  0  0
   -0.1750    2.3767    1.0315 N   0  0  0  0  0  4  0  0  0  0  0  0
    2.2063    0.9415    0.2490 C   0  0  0  0  0  0  0  0  0  0  0  0
    3.4554    0.3614   -0.1482 C   0  0  0  0  0  0  0  0  0  0  0  0
    4.5162    1.1704   -0.5324 C   0  0  0  0  0  0  0  0  0  0  0  0
    4.4161    2.5902   -0.5503 C   0  0  0  0  0  0  0  0  0  0  0  0
    3.2269    3.1879   -0.1681 C   0  0  0  0  0  0  0  0  0  0  0  0
    2.1077    2.3982    0.2330 C   0  0  0  0  0  0  0  0  0  0  0  0
    0.8967    3.0339    0.6153 C   0  0  0  0  0  0  0  0  0  0  0  0
   -1.4578    3.0053    1.2686 C   0  0  0  0  0  0  0  0  0  0  0  0
   -2.2336    3.2123   -0.0484 C   0  0  0  0  0  0  0  0  0  0  0  0
    3.5301   -0.7350   -0.1260 H   0  0  0  0  0  0  0  0  0  0  0  0
    5.4680    0.6988   -0.8251 H   0  0  0  0  0  0  0  0  0  0  0  0
    5.2768    3.2011   -0.8574 H   0  0  0  0  0  0  0  0  0  0  0  0
    3.1255    4.2855   -0.1661 H   0  0  0  0  0  0  0  0  0  0  0  0
    0.8222    4.1352    0.5719 H   0  0  0  0  0  0  0  0  0  0  0  0
   -0.0330    1.3271    1.0313 H   0  0  0  0  0  0  0  0  0  0  0  0
   -2.0453    2.3685    1.9581 H   0  0  0  0  0  0  0  0  0  0  0  0
   -1.2944    3.9917    1.7504 H   0  0  0  0  0  0  0  0  0  0  0  0
   -3.1759    3.7483    0.1929 H   0  0  0  0  0  0  0  0  0  0  0  0
   -2.5176    2.2266   -0.4763 H   0  0  0  0  0  0  0  0  0  0  0  0
   -0.9562    3.4074   -1.5031 H   0  0  0  0  0  0  0  0  0  0  0  0
  2 12  1  0  0  0  0
  3 11  1  0  0  0  0
  4  1  1  0  0  0  0
  5 13  1  0  0  0  0
  5  4  2  0  0  0  0
  6  5  1  0  0  0  0
  7  6  2  0  0  0  0
  7  8  1  0  0  0  0
  8 16  1  0  0  0  0
  8  9  2  0  0  0  0
  9  4  1  0  0  0  0
  9 10  1  0  0  0  0
 10  3  2  0  0  0  0
 11 20  1  0  0  0  0
 11 19  1  0  0  0  0
 12 21  1  0  0  0  0
 12 11  1  0  0  0  0
 14  6  1  0  0  0  0
 15  7  1  0  0  0  0
 17 10  1  0  0  0  0
 18  3  1  0  0  0  0
 22 12  1  0  0  0  0
 23  2  1  0  0  0  0
M  CHG  1   1  -1
M  END
