1
 OpenBabel05122313063D

 25 26  0  0  0  0  0  0  0  0999 V2000
   -1.0001   -0.2302   -0.2583 O   0  0  0  0  0  1  0  0  0  0  0  0
   -2.1276    0.0947    0.4678 C   0  0  0  0  0  0  0  0  0  0  0  0
   -1.8988    0.2957    1.5452 H   0  0  0  0  0  0  0  0  0  0  0  0
   -3.1620   -1.0382    0.4677 C   0  0  0  0  0  0  0  0  0  0  0  0
   -3.0456   -2.1067   -0.4374 C   0  0  0  0  0  0  0  0  0  0  0  0
   -2.1830   -2.1026   -1.1197 H   0  0  0  0  0  0  0  0  0  0  0  0
   -3.9892   -3.1469   -0.4471 C   0  0  0  0  0  0  0  0  0  0  0  0
   -3.8834   -3.9781   -1.1620 H   0  0  0  0  0  0  0  0  0  0  0  0
   -5.0630   -3.1310    0.4564 C   0  0  0  0  0  0  0  0  0  0  0  0
   -5.8018   -3.9470    0.4557 H   0  0  0  0  0  0  0  0  0  0  0  0
   -5.1875   -2.0657    1.3654 C   0  0  0  0  0  0  0  0  0  0  0  0
   -6.0257   -2.0470    2.0794 H   0  0  0  0  0  0  0  0  0  0  0  0
   -4.2453   -1.0275    1.3674 C   0  0  0  0  0  0  0  0  0  0  0  0
   -4.3491   -0.1905    2.0775 H   0  0  0  0  0  0  0  0  0  0  0  0
   -2.7676    1.3748   -0.0847 C   0  0  0  0  0  0  0  0  0  0  0  0
   -2.8954    2.5357    0.6974 C   0  0  0  0  0  0  0  0  0  0  0  0
   -2.5772    2.5120    1.7524 H   0  0  0  0  0  0  0  0  0  0  0  0
   -3.4233    3.7200    0.1526 C   0  0  0  0  0  0  0  0  0  0  0  0
   -3.5102    4.6218    0.7784 H   0  0  0  0  0  0  0  0  0  0  0  0
   -3.8375    3.7506   -1.1869 C   0  0  0  0  0  0  0  0  0  0  0  0
   -4.2514    4.6749   -1.6180 H   0  0  0  0  0  0  0  0  0  0  0  0
   -3.7223    2.5908   -1.9758 C   0  0  0  0  0  0  0  0  0  0  0  0
   -4.0505    2.6073   -3.0268 H   0  0  0  0  0  0  0  0  0  0  0  0
   -3.1900    1.4162   -1.4289 C   0  0  0  0  0  0  0  0  0  0  0  0
   -3.0889    0.5096   -2.0447 H   0  0  0  0  0  0  0  0  0  0  0  0
  1  2  1  0  0  0  0
  2  3  1  0  0  0  0
  4  2  1  0  0  0  0
  4 13  1  0  0  0  0
  5  4  2  0  0  0  0
  6  5  1  0  0  0  0
  7  5  1  0  0  0  0
  7  9  2  0  0  0  0
  8  7  1  0  0  0  0
  9 11  1  0  0  0  0
 10  9  1  0  0  0  0
 11 13  2  0  0  0  0
 11 12  1  0  0  0  0
 13 14  1  0  0  0  0
 15  2  1  0  0  0  0
 15 16  1  0  0  0  0
 16 17  1  0  0  0  0
 18 16  2  0  0  0  0
 18 19  1  0  0  0  0
 20 18  1  0  0  0  0
 21 20  1  0  0  0  0
 22 24  1  0  0  0  0
 22 20  2  0  0  0  0
 23 22  1  0  0  0  0
 24 15  2  0  0  0  0
 25 24  1  0  0  0  0
M  END
