1
 OpenBabel05122313063D

 15 15  0  0  0  0  0  0  0  0999 V2000
    0.6540    0.9786    0.4755 O   0  0  0  0  0  1  0  0  0  0  0  0
    1.6428    1.7533   -0.1070 C   0  0  0  0  0  0  0  0  0  0  0  0
    1.5484    2.8322    0.2091 H   0  0  0  0  0  0  0  0  0  0  0  0
    1.5799    1.7795   -1.2267 H   0  0  0  0  0  0  0  0  0  0  0  0
    3.0501    1.3098    0.2707 C   0  0  0  0  0  0  0  0  0  0  0  0
    4.1423    1.5159   -0.5940 C   0  0  0  0  0  0  0  0  0  0  0  0
    3.9738    2.0002   -1.5703 H   0  0  0  0  0  0  0  0  0  0  0  0
    5.4347    1.1033   -0.2317 C   0  0  0  0  0  0  0  0  0  0  0  0
    6.2759    1.2642   -0.9239 H   0  0  0  0  0  0  0  0  0  0  0  0
    5.6533    0.4766    1.0058 C   0  0  0  0  0  0  0  0  0  0  0  0
    6.6649    0.1480    1.2893 H   0  0  0  0  0  0  0  0  0  0  0  0
    4.5705    0.2693    1.8768 C   0  0  0  0  0  0  0  0  0  0  0  0
    4.7347   -0.2200    2.8500 H   0  0  0  0  0  0  0  0  0  0  0  0
    3.2803    0.6814    1.5097 C   0  0  0  0  0  0  0  0  0  0  0  0
    2.4166    0.5154    2.1705 H   0  0  0  0  0  0  0  0  0  0  0  0
  2  3  1  0  0  0  0
  2  5  1  0  0  0  0
  2  1  1  0  0  0  0
  4  2  1  0  0  0  0
  5 14  1  0  0  0  0
  6  8  1  0  0  0  0
  6  5  2  0  0  0  0
  7  6  1  0  0  0  0
  8 10  2  0  0  0  0
  9  8  1  0  0  0  0
 10 11  1  0  0  0  0
 10 12  1  0  0  0  0
 12 13  1  0  0  0  0
 14 12  2  0  0  0  0
 14 15  1  0  0  0  0
M  END
