2
 OpenBabel05122313063D

 19 19  0  0  0  0  0  0  0  0999 V2000
    2.5533    1.4909    1.7453 O   0  5  0  0  0  0  0  0  0  0  0  0
    1.7046    0.6548   -0.1787 O   0  0  0  0  0  0  0  0  0  0  0  0
    4.9032    0.8333    2.5249 O   0  0  0  0  0  0  0  0  0  0  0  0
    5.1894   -2.3635   -2.0133 O   0  0  0  0  0  0  0  0  0  0  0  0
    2.6421    0.7523    0.6980 C   0  0  0  0  0  0  0  0  0  0  0  0
    3.8841   -0.0223    0.4850 C   0  0  0  0  0  0  0  0  0  0  0  0
    4.9597    0.0660    1.4256 C   0  0  0  0  0  0  0  0  0  0  0  0
    6.1249   -0.6898    1.1770 C   0  0  0  0  0  0  0  0  0  0  0  0
    6.9490   -0.6192    1.9013 H   0  0  0  0  0  0  0  0  0  0  0  0
    6.2345   -1.5055    0.0468 C   0  0  0  0  0  0  0  0  0  0  0  0
    7.1609   -2.0762   -0.1051 H   0  0  0  0  0  0  0  0  0  0  0  0
    4.0073   -0.8493   -0.6504 C   0  0  0  0  0  0  0  0  0  0  0  0
    3.1724   -0.9090   -1.3611 H   0  0  0  0  0  0  0  0  0  0  0  0
    5.1705   -1.5934   -0.8829 C   0  0  0  0  0  0  0  0  0  0  0  0
    6.3434   -3.1327   -2.2750 C   0  0  0  0  0  0  0  0  0  0  0  0
    7.2514   -2.4991   -2.4030 H   0  0  0  0  0  0  0  0  0  0  0  0
    6.1531   -3.6754   -3.2199 H   0  0  0  0  0  0  0  0  0  0  0  0
    6.5446   -3.8763   -1.4696 H   0  0  0  0  0  0  0  0  0  0  0  0
    3.9983    1.2686    2.4927 H   0  0  0  0  0  0  0  0  0  0  0  0
  2  5  2  0  0  0  0
  4 14  1  0  0  0  0
  5  1  1  0  0  0  0
  6  5  1  0  0  0  0
  6  7  1  0  0  0  0
  7  3  1  0  0  0  0
  8  7  2  0  0  0  0
  8  9  1  0  0  0  0
 10  8  1  0  0  0  0
 11 10  1  0  0  0  0
 12  6  2  0  0  0  0
 13 12  1  0  0  0  0
 14 12  1  0  0  0  0
 14 10  2  0  0  0  0
 15  4  1  0  0  0  0
 15 18  1  0  0  0  0
 16 15  1  0  0  0  0
 17 15  1  0  0  0  0
 19  3  1  0  0  0  0
M  CHG  1   1  -1
M  END
