1
 OpenBabel05122313063D

 12 12  0  0  0  0  0  0  0  0999 V2000
    0.5519   -0.6323   -1.1906 O   0  0  0  0  0  1  0  0  0  0  0  0
    1.6924   -1.0080   -0.8020 C   0  0  0  0  0  3  0  0  0  0  0  0
    1.9340   -1.8279    0.2569 N   0  0  0  0  0  0  0  0  0  0  0  0
    3.3621   -1.8695    0.5594 C   0  0  0  0  0  0  0  0  0  0  0  0
    3.9466   -0.7716   -0.3723 C   0  0  0  0  0  0  0  0  0  0  0  0
    2.8768   -0.5979   -1.3595 N   0  0  0  0  0  0  0  0  0  0  0  0
    1.1994   -1.8328    0.9863 H   0  0  0  0  0  0  0  0  0  0  0  0
    3.7855   -2.8716    0.3290 H   0  0  0  0  0  0  0  0  0  0  0  0
    3.5533   -1.6550    1.6292 H   0  0  0  0  0  0  0  0  0  0  0  0
    4.9005   -1.0831   -0.8408 H   0  0  0  0  0  0  0  0  0  0  0  0
    4.1033    0.1836    0.1761 H   0  0  0  0  0  0  0  0  0  0  0  0
    2.8016    0.3101   -1.8304 H   0  0  0  0  0  0  0  0  0  0  0  0
  1  2  1  0  0  0  0
  2  3  1  0  0  0  0
  3  4  1  0  0  0  0
  3  7  1  0  0  0  0
  4  9  1  0  0  0  0
  5 11  1  0  0  0  0
  5  4  1  0  0  0  0
  6  2  1  0  0  0  0
  6  5  1  0  0  0  0
  8  4  1  0  0  0  0
 10  5  1  0  0  0  0
 12  6  1  0  0  0  0
M  END
