1
 OpenBabel05122313063D

  3  2  0  0  0  0  0  0  0  0999 V2000
   -0.2118    1.8966   -0.8642 O   0  0  0  0  0  0  0  0  0  0  0  0
   -0.6957    2.8196   -0.0555 N   0  0  0  0  0  0  0  0  0  0  0  0
   -0.7477    3.9476   -0.5108 O   0  0  0  0  0  0  0  0  0  0  0  0
  1  2  1  0  0  0  0
  3  2  2  0  0  0  0
M  END
