8
 OpenBabel05122313063D

 14 14  0  0  0  0  0  0  0  0999 V2000
   -1.5718   -0.5312   -0.0001 C   0  0  0  0  0  0  0  0  0  0  0  0
   -1.9777    0.8556    0.0001 C   0  0  0  0  0  3  0  0  0  0  0  0
   -3.2415    1.4160    0.0001 C   0  0  0  0  0  0  0  0  0  0  0  0
   -4.5260    0.7990   -0.0001 C   0  0  0  0  0  0  0  0  0  0  0  0
   -4.8126   -0.5550   -0.0002 C   0  0  0  0  0  0  0  0  0  0  0  0
   -3.8904   -1.6423    0.0000 C   0  0  0  0  0  0  0  0  0  0  0  0
   -2.5096   -1.6359    0.0000 C   0  0  0  0  0  0  0  0  0  0  0  0
   -0.3363   -0.8798   -0.0005 O   0  5  0  0  0  0  0  0  0  0  0  0
   -1.1428    1.5711    0.0004 H   0  0  0  0  0  0  0  0  0  0  0  0
   -3.2585    2.5184    0.0003 H   0  0  0  0  0  0  0  0  0  0  0  0
   -5.3856    1.4875   -0.0002 H   0  0  0  0  0  0  0  0  0  0  0  0
   -5.8784   -0.8340   -0.0003 H   0  0  0  0  0  0  0  0  0  0  0  0
   -4.3508   -2.6437    0.0001 H   0  0  0  0  0  0  0  0  0  0  0  0
   -2.0052   -2.6157    0.0001 H   0  0  0  0  0  0  0  0  0  0  0  0
  1  7  2  0  0  0  0
  1  2  1  0  0  0  0
  2  9  1  0  0  0  0
  3  2  1  0  0  0  0
  3 10  1  0  0  0  0
  4  3  2  0  0  0  0
  5  4  1  0  0  0  0
  5  6  2  0  0  0  0
  6  7  1  0  0  0  0
  6 13  1  0  0  0  0
  7 14  1  0  0  0  0
  8  1  1  0  0  0  0
 11  4  1  0  0  0  0
 12  5  1  0  0  0  0
M  CHG  1   8  -1
M  END
