12
 OpenBabel05122313063D

 13 13  0  0  0  0  0  0  0  0999 V2000
   -1.8775   -1.2220    0.6423 N   0  0  0  0  0  0  0  0  0  0  0  0
   -2.3529   -1.9970   -0.3456 C   0  0  0  0  0  0  0  0  0  0  0  0
   -3.4122   -2.8937   -0.1562 C   0  0  0  0  0  0  0  0  0  0  0  0
   -3.7523   -3.4886   -1.0159 H   0  0  0  0  0  0  0  0  0  0  0  0
   -3.9766   -2.9903    1.1221 C   0  0  0  0  0  0  0  0  0  0  0  0
   -4.8073   -3.6853    1.3175 H   0  0  0  0  0  0  0  0  0  0  0  0
   -3.4590   -2.1915    2.1546 C   0  0  0  0  0  0  0  0  0  0  0  0
   -3.8650   -2.2436    3.1750 H   0  0  0  0  0  0  0  0  0  0  0  0
   -2.4011   -1.3147    1.8747 C   0  0  0  0  0  0  0  0  0  0  0  0
   -1.9496   -0.6727    2.6465 H   0  0  0  0  0  0  0  0  0  0  0  0
   -1.6501   -1.8249   -1.6727 C   0  0  0  0  0  0  0  0  0  0  0  0
   -0.6182   -1.0077   -1.5869 O   0  5  0  0  0  0  0  0  0  0  0  0
   -2.0317   -2.3896   -2.6884 O   0  0  0  0  0  0  0  0  0  0  0  0
  1  9  1  0  0  0  0
  2  3  1  0  0  0  0
  2  1  2  0  0  0  0
  3  5  2  0  0  0  0
  4  3  1  0  0  0  0
  5  6  1  0  0  0  0
  5  7  1  0  0  0  0
  7  8  1  0  0  0  0
  9  7  2  0  0  0  0
  9 10  1  0  0  0  0
 11 12  1  0  0  0  0
 11  2  1  0  0  0  0
 13 11  2  0  0  0  0
M  CHG  1  12  -1
M  END
