1
 OpenBabel05122313063D

 14 14  0  0  0  0  0  0  0  0999 V2000
   -1.2298   -0.3535   -1.1714 O   0  5  0  0  0  0  0  0  0  0  0  0
   -2.5423   -0.0856   -1.2030 C   0  0  0  0  0  0  0  0  0  0  0  0
   -3.3821   -0.3072   -0.0753 C   0  0  0  0  0  0  0  0  0  0  0  0
   -4.7625   -0.0291   -0.1868 C   0  0  0  0  0  0  0  0  0  0  0  0
   -5.3747   -0.2114    0.7101 H   0  0  0  0  0  0  0  0  0  0  0  0
   -3.5489   -0.9378    2.2235 O   0  0  0  0  0  0  0  0  0  0  0  0
   -5.3119    0.4588   -1.3729 C   0  0  0  0  0  0  0  0  0  0  0  0
   -6.3890    0.6699   -1.4441 H   0  0  0  0  0  0  0  0  0  0  0  0
   -4.4696    0.6837   -2.4811 C   0  0  0  0  0  0  0  0  0  0  0  0
   -4.8887    1.0728   -3.4218 H   0  0  0  0  0  0  0  0  0  0  0  0
   -3.0995    0.4171   -2.4019 C   0  0  0  0  0  0  0  0  0  0  0  0
   -2.4293    0.5872   -3.2569 H   0  0  0  0  0  0  0  0  0  0  0  0
   -2.8565   -0.7999    1.2233 C   0  0  0  0  0  0  0  0  0  0  0  0
   -1.7639   -1.0469    1.2349 H   0  0  0  0  0  0  0  0  0  0  0  0
  2  1  1  0  0  0  0
  2  3  1  0  0  0  0
  3 13  1  0  0  0  0
  4  3  2  0  0  0  0
  4  5  1  0  0  0  0
  7  4  1  0  0  0  0
  8  7  1  0  0  0  0
  9 11  1  0  0  0  0
  9  7  2  0  0  0  0
 10  9  1  0  0  0  0
 11  2  2  0  0  0  0
 12 11  1  0  0  0  0
 13 14  1  0  0  0  0
 13  6  2  0  0  0  0
M  CHG  1   1  -1
M  END
