12
 OpenBabel05122313063D

 16 16  0  0  0  0  0  0  0  0999 V2000
    2.8525    0.8941    0.4670 C   0  0  0  0  0  0  0  0  0  0  0  0
    6.3613   -1.0152   -1.1150 C   0  0  0  0  0  0  0  0  0  0  0  0
    4.0841    0.2238   -0.1041 C   0  0  0  0  0  0  0  0  0  0  0  0
    5.3598    0.6053    0.3571 C   0  0  0  0  0  0  0  0  0  0  0  0
    5.4180    1.3970    1.1178 H   0  0  0  0  0  0  0  0  0  0  0  0
    3.9652   -0.7825   -1.0839 C   0  0  0  0  0  0  0  0  0  0  0  0
    2.9594   -1.0537   -1.4347 H   0  0  0  0  0  0  0  0  0  0  0  0
    5.1054   -1.4097   -1.5973 C   0  0  0  0  0  0  0  0  0  0  0  0
    5.0534   -2.1954   -2.3627 H   0  0  0  0  0  0  0  0  0  0  0  0
    6.5091   -0.0140   -0.1444 C   0  0  0  0  0  0  0  0  0  0  0  0
    7.5189    0.2544    0.1931 H   0  0  0  0  0  0  0  0  0  0  0  0
    1.7261    0.4225    0.0643 O   0  5  0  0  0  0  0  0  0  0  0  0
    3.0209    1.8282    1.2914 O   0  0  0  0  0  0  0  0  0  0  0  0
    8.6653   -1.3105   -1.2137 O   0  0  0  0  0  0  0  0  0  0  0  0
    7.4139   -2.5604   -2.4971 O   0  0  0  0  0  0  0  0  0  0  0  0
    7.5758   -1.6806   -1.6510 N   0  0  0  0  0  0  0  0  0  0  0  0
  1 13  2  0  0  0  0
  2 10  1  0  0  0  0
  3  4  1  0  0  0  0
  3  1  1  0  0  0  0
  4  5  1  0  0  0  0
  6  3  2  0  0  0  0
  7  6  1  0  0  0  0
  8  2  2  0  0  0  0
  8  6  1  0  0  0  0
  9  8  1  0  0  0  0
 10 11  1  0  0  0  0
 10  4  2  0  0  0  0
 12  1  1  0  0  0  0
 15 16  2  0  0  0  0
 16 14  2  0  0  0  0
 16  2  1  0  0  0  0
M  CHG  1  12  -1
M  END
