1
 OpenBabel05122313063D

 46 48  0  0  1  0  0  0  0  0999 V2000
   -0.7141    0.8534    1.1001 O   0  5  0  0  0  0  0  0  0  0  0  0
    4.0529   -1.4947   -0.1196 O   0  0  0  0  0  0  0  0  0  0  0  0
    0.3215   -1.4542    1.5316 N   0  0  0  0  0  4  0  0  0  0  0  0
    1.6793   -2.0798   -0.8033 N   0  0  0  0  0  0  0  0  0  0  0  0
    0.3801    1.4403    1.4635 C   0  0  0  0  0  0  0  0  0  0  0  0
    0.5652    2.8572    1.4363 C   0  0  0  0  0  0  0  0  0  0  0  0
    1.7810    3.4198    1.8102 C   0  0  0  0  0  0  0  0  0  0  0  0
    2.8794    2.6220    2.2254 C   0  0  0  0  0  0  0  0  0  0  0  0
    2.7348    1.2438    2.2740 C   0  0  0  0  0  0  0  0  0  0  0  0
    1.5051    0.6260    1.9060 C   0  0  0  0  0  0  0  0  0  0  0  0
    1.4195   -0.7928    1.8559 C   0  0  0  0  0  0  0  0  0  0  0  0
    0.3125   -2.8277    1.0654 C   0  0  1  0  0  0  0  0  0  0  0  0
   -0.9673   -3.5677    1.4648 C   0  0  0  0  0  0  0  0  0  0  0  0
   -0.9520   -5.0045    0.9287 C   0  0  0  0  0  0  0  0  0  0  0  0
   -0.7300   -5.0424   -0.5892 C   0  0  0  0  0  0  0  0  0  0  0  0
    0.5363   -4.2784   -0.9948 C   0  0  0  0  0  0  0  0  0  0  0  0
    0.4850   -2.8292   -0.4922 C   0  0  2  0  0  0  0  0  0  0  0  0
    1.5817   -0.9253   -1.3972 C   0  0  0  0  0  0  0  0  0  0  0  0
    2.7076   -0.0189   -1.4762 C   0  0  0  0  0  0  0  0  0  0  0  0
    2.5969    1.2275   -2.1395 C   0  0  0  0  0  0  0  0  0  0  0  0
    3.6458    2.1452   -2.1238 C   0  0  0  0  0  0  0  0  0  0  0  0
    4.8329    1.8224   -1.4302 C   0  0  0  0  0  0  0  0  0  0  0  0
    4.9737    0.6036   -0.7636 C   0  0  0  0  0  0  0  0  0  0  0  0
    3.9213   -0.3400   -0.7761 C   0  0  0  0  0  0  0  0  0  0  0  0
   -0.4833   -0.8164    1.2902 H   0  0  0  0  0  0  0  0  0  0  0  0
    3.1668   -2.0112   -0.2928 H   0  0  0  0  0  0  0  0  0  0  0  0
   -0.2833    3.4843    1.1283 H   0  0  0  0  0  0  0  0  0  0  0  0
    1.8931    4.5153    1.7847 H   0  0  0  0  0  0  0  0  0  0  0  0
    3.8329    3.0941    2.5003 H   0  0  0  0  0  0  0  0  0  0  0  0
    3.5759    0.6017    2.5799 H   0  0  0  0  0  0  0  0  0  0  0  0
    2.3306   -1.3886    2.0432 H   0  0  0  0  0  0  0  0  0  0  0  0
    1.2037   -3.3369    1.4964 H   0  0  0  0  0  0  0  0  0  0  0  0
   -1.0656   -3.5570    2.5697 H   0  0  0  0  0  0  0  0  0  0  0  0
   -1.8331   -3.0058    1.0531 H   0  0  0  0  0  0  0  0  0  0  0  0
   -0.1403   -5.5758    1.4327 H   0  0  0  0  0  0  0  0  0  0  0  0
   -1.9011   -5.5130    1.1940 H   0  0  0  0  0  0  0  0  0  0  0  0
   -1.6075   -4.5870   -1.0984 H   0  0  0  0  0  0  0  0  0  0  0  0
   -0.6697   -6.0914   -0.9449 H   0  0  0  0  0  0  0  0  0  0  0  0
    1.4418   -4.7715   -0.5767 H   0  0  0  0  0  0  0  0  0  0  0  0
    0.6601   -4.2698   -2.0970 H   0  0  0  0  0  0  0  0  0  0  0  0
   -0.4188   -2.3255   -0.9112 H   0  0  0  0  0  0  0  0  0  0  0  0
    0.6043   -0.5766   -1.8024 H   0  0  0  0  0  0  0  0  0  0  0  0
    1.6566    1.4630   -2.6620 H   0  0  0  0  0  0  0  0  0  0  0  0
    3.5492    3.1108   -2.6400 H   0  0  0  0  0  0  0  0  0  0  0  0
    5.6644    2.5439   -1.4107 H   0  0  0  0  0  0  0  0  0  0  0  0
    5.8933    0.3466   -0.2185 H   0  0  0  0  0  0  0  0  0  0  0  0
  1  5  1  0  0  0  0
  3 11  2  0  0  0  0
  4 17  1  0  0  0  0
  5 10  1  0  0  0  0
  6  5  2  0  0  0  0
  6  7  1  0  0  0  0
  7  8  2  0  0  0  0
  8  9  1  0  0  0  0
  8 29  1  0  0  0  0
  9 30  1  0  0  0  0
 10  9  2  0  0  0  0
 11 10  1  0  0  0  0
 11 31  1  0  0  0  0
 12 13  1  0  0  0  0
 12 32  1  1  0  0  0
 12  3  1  0  0  0  0
 13 33  1  0  0  0  0
 14 36  1  0  0  0  0
 14 35  1  0  0  0  0
 14 13  1  0  0  0  0
 15 14  1  0  0  0  0
 16 15  1  0  0  0  0
 16 39  1  0  0  0  0
 16 17  1  0  0  0  0
 17 41  1  6  0  0  0
 17 12  1  0  0  0  0
 18  4  2  0  0  0  0
 19 18  1  0  0  0  0
 19 24  1  0  0  0  0
 20 21  1  0  0  0  0
 20 19  2  0  0  0  0
 21 22  2  0  0  0  0
 22 45  1  0  0  0  0
 22 23  1  0  0  0  0
 23 46  1  0  0  0  0
 24 23  2  0  0  0  0
 24  2  1  0  0  0  0
 25  3  1  0  0  0  0
 26  2  1  0  0  0  0
 27  6  1  0  0  0  0
 28  7  1  0  0  0  0
 34 13  1  0  0  0  0
 37 15  1  0  0  0  0
 38 15  1  0  0  0  0
 40 16  1  0  0  0  0
 42 18  1  0  0  0  0
 43 20  1  0  0  0  0
 44 21  1  0  0  0  0
M  CHG  1   1  -1
M  END
