2
 OpenBabel05122313063D

 27 27  0  0  0  0  0  0  0  0999 V2000
   -2.5376   -1.2809   -0.4492 S   0  0  0  0  0  0  0  0  0  0  0  0
   -0.0347    1.1147   -0.9227 O   0  5  0  0  0  0  0  0  0  0  0  0
   -2.0532    2.0370   -0.5008 O   0  0  0  0  0  0  0  0  0  0  0  0
   -1.3497    1.1546   -0.9916 C   0  0  0  0  0  0  0  0  0  0  0  0
   -1.9422   -0.0574   -1.7012 C   0  0  0  0  0  0  0  0  0  0  0  0
   -1.1833   -0.5782   -2.3144 H   0  0  0  0  0  0  0  0  0  0  0  0
   -2.8021    0.2465   -2.3268 H   0  0  0  0  0  0  0  0  0  0  0  0
   -4.2381   -0.7692   -0.1934 C   0  0  0  0  0  0  0  0  0  0  0  0
   -4.5941   -0.0823    0.9978 C   0  0  0  0  0  0  0  0  0  0  0  0
   -5.9464    0.2407    1.1990 C   0  0  0  0  0  0  0  0  0  0  0  0
   -6.2280    0.7773    2.1197 H   0  0  0  0  0  0  0  0  0  0  0  0
   -6.9453   -0.0902    0.2639 C   0  0  0  0  0  0  0  0  0  0  0  0
   -6.5605   -0.7758   -0.8997 C   0  0  0  0  0  0  0  0  0  0  0  0
   -7.3287   -1.0540   -1.6395 H   0  0  0  0  0  0  0  0  0  0  0  0
   -5.2218   -1.1343   -1.1488 C   0  0  0  0  0  0  0  0  0  0  0  0
   -3.5626    0.3292    2.0157 C   0  0  0  0  0  0  0  0  0  0  0  0
   -2.9700   -0.5337    2.3802 H   0  0  0  0  0  0  0  0  0  0  0  0
   -4.0395    0.8179    2.8868 H   0  0  0  0  0  0  0  0  0  0  0  0
   -2.8519    1.0427    1.5529 H   0  0  0  0  0  0  0  0  0  0  0  0
   -8.3831    0.2903    0.5114 C   0  0  0  0  0  0  0  0  0  0  0  0
   -9.0579   -0.1338   -0.2569 H   0  0  0  0  0  0  0  0  0  0  0  0
   -8.5114    1.3934    0.5015 H   0  0  0  0  0  0  0  0  0  0  0  0
   -8.7293   -0.0621    1.5049 H   0  0  0  0  0  0  0  0  0  0  0  0
   -4.8700   -1.8800   -2.4100 C   0  0  0  0  0  0  0  0  0  0  0  0
   -5.7757   -2.2921   -2.8947 H   0  0  0  0  0  0  0  0  0  0  0  0
   -4.1581   -2.7036   -2.2032 H   0  0  0  0  0  0  0  0  0  0  0  0
   -4.3709   -1.2181   -3.1505 H   0  0  0  0  0  0  0  0  0  0  0  0
  1  8  1  0  0  0  0
  4  2  1  0  0  0  0
  4  3  2  0  0  0  0
  5  4  1  0  0  0  0
  5  1  1  0  0  0  0
  6  5  1  0  0  0  0
  7  5  1  0  0  0  0
  8  9  1  0  0  0  0
  9 10  2  0  0  0  0
  9 16  1  0  0  0  0
 10 11  1  0  0  0  0
 12 20  1  0  0  0  0
 12 10  1  0  0  0  0
 13 12  2  0  0  0  0
 14 13  1  0  0  0  0
 15 13  1  0  0  0  0
 15  8  2  0  0  0  0
 16 17  1  0  0  0  0
 16 18  1  0  0  0  0
 19 16  1  0  0  0  0
 20 23  1  0  0  0  0
 21 20  1  0  0  0  0
 22 20  1  0  0  0  0
 24 26  1  0  0  0  0
 24 15  1  0  0  0  0
 25 24  1  0  0  0  0
 27 24  1  0  0  0  0
M  CHG  1   2  -1
M  END
