2
 OpenBabel05122313063D

 32 32  0  0  0  0  0  0  0  0999 V2000
    1.0478    0.8515   -0.0346 P   0  0  0  0  0  0  0  0  0  0  0  0
    0.3447   -1.9594    0.1212 O   0  5  0  0  0  0  0  0  0  0  0  0
    2.2562   -0.5066   -0.1317 C   0  0  0  0  0  0  0  0  0  0  0  0
    1.6525   -1.7984    0.0024 C   0  0  0  0  0  0  0  0  0  0  0  0
    2.5165   -2.9314   -0.0050 C   0  0  0  0  0  0  0  0  0  0  0  0
    2.0606   -3.9262    0.1081 H   0  0  0  0  0  0  0  0  0  0  0  0
    3.8943   -2.7777   -0.1716 C   0  0  0  0  0  0  0  0  0  0  0  0
    4.5364   -3.6729   -0.1847 H   0  0  0  0  0  0  0  0  0  0  0  0
    4.4756   -1.5028   -0.3350 C   0  0  0  0  0  0  0  0  0  0  0  0
    5.5603   -1.3960   -0.4811 H   0  0  0  0  0  0  0  0  0  0  0  0
    3.6483   -0.3727   -0.3113 C   0  0  0  0  0  0  0  0  0  0  0  0
    4.0912    0.6270   -0.4463 H   0  0  0  0  0  0  0  0  0  0  0  0
    1.4753    2.0233   -1.4284 C   0  0  0  0  0  0  0  0  0  0  0  0
    2.5705    2.2015   -1.3465 H   0  0  0  0  0  0  0  0  0  0  0  0
    0.7437    3.3637   -1.2976 C   0  0  0  0  0  0  0  0  0  0  0  0
    1.0168    3.9076   -0.3719 H   0  0  0  0  0  0  0  0  0  0  0  0
   -0.3573    3.2287   -1.2985 H   0  0  0  0  0  0  0  0  0  0  0  0
    0.9963    4.0208   -2.1557 H   0  0  0  0  0  0  0  0  0  0  0  0
    1.1891    1.3196   -2.7603 C   0  0  0  0  0  0  0  0  0  0  0  0
    1.7469    0.3657   -2.8402 H   0  0  0  0  0  0  0  0  0  0  0  0
    1.4844    1.9665   -3.6122 H   0  0  0  0  0  0  0  0  0  0  0  0
    0.1092    1.0846   -2.8584 H   0  0  0  0  0  0  0  0  0  0  0  0
    1.3983    1.7807    1.5599 C   0  0  0  0  0  0  0  0  0  0  0  0
    0.6410    2.5969    1.5567 H   0  0  0  0  0  0  0  0  0  0  0  0
    2.7994    2.3913    1.6425 C   0  0  0  0  0  0  0  0  0  0  0  0
    3.0198    3.0783    0.8010 H   0  0  0  0  0  0  0  0  0  0  0  0
    3.5749    1.5995    1.6545 H   0  0  0  0  0  0  0  0  0  0  0  0
    2.9049    2.9731    2.5823 H   0  0  0  0  0  0  0  0  0  0  0  0
    1.1061    0.8454    2.7397 C   0  0  0  0  0  0  0  0  0  0  0  0
    0.0762    0.4371    2.6838 H   0  0  0  0  0  0  0  0  0  0  0  0
    1.2254    1.3858    3.7016 H   0  0  0  0  0  0  0  0  0  0  0  0
    1.8059   -0.0154    2.7410 H   0  0  0  0  0  0  0  0  0  0  0  0
  1 23  1  0  0  0  0
  3  1  1  0  0  0  0
  3  4  1  0  0  0  0
  4  2  1  0  0  0  0
  5  4  2  0  0  0  0
  5  6  1  0  0  0  0
  7  5  1  0  0  0  0
  8  7  1  0  0  0  0
  9 11  1  0  0  0  0
  9  7  2  0  0  0  0
 10  9  1  0  0  0  0
 11  3  2  0  0  0  0
 12 11  1  0  0  0  0
 13 14  1  0  0  0  0
 13 15  1  0  0  0  0
 13  1  1  0  0  0  0
 15 16  1  0  0  0  0
 17 15  1  0  0  0  0
 18 15  1  0  0  0  0
 19 13  1  0  0  0  0
 20 19  1  0  0  0  0
 21 19  1  0  0  0  0
 22 19  1  0  0  0  0
 23 25  1  0  0  0  0
 23 29  1  0  0  0  0
 24 23  1  0  0  0  0
 25 27  1  0  0  0  0
 25 28  1  0  0  0  0
 26 25  1  0  0  0  0
 29 32  1  0  0  0  0
 29 31  1  0  0  0  0
 30 29  1  0  0  0  0
M  CHG  1   2  -1
M  END
