13
 OpenBabel05122313063D

 14 13  0  0  0  0  0  0  0  0999 V2000
    1.8138   -2.7433   -0.3344 C   0  0  0  0  0  0  0  0  0  0  0  0
    2.9148   -3.7204   -0.5952 C   0  0  0  0  0  0  0  0  0  0  0  0
    2.7073   -4.4033   -1.4357 H   0  0  0  0  0  0  0  0  0  0  0  0
    4.1414   -3.7696   -0.0106 C   0  0  0  0  0  0  0  0  0  0  0  0
    5.1711   -4.7591   -0.4917 C   0  0  0  0  0  0  0  0  0  0  0  0
    4.7846   -5.4127   -1.2978 H   0  0  0  0  0  0  0  0  0  0  0  0
    5.5243   -5.4025    0.3440 H   0  0  0  0  0  0  0  0  0  0  0  0
    6.0739   -4.2315   -0.8725 H   0  0  0  0  0  0  0  0  0  0  0  0
    4.5950   -2.8616    1.0988 C   0  0  0  0  0  0  0  0  0  0  0  0
    3.7929   -2.1665    1.3997 H   0  0  0  0  0  0  0  0  0  0  0  0
    5.4876   -2.2817    0.7771 H   0  0  0  0  0  0  0  0  0  0  0  0
    4.9100   -3.4602    1.9816 H   0  0  0  0  0  0  0  0  0  0  0  0
    1.0000   -2.5701   -1.3177 O   0  5  0  0  0  0  0  0  0  0  0  0
    1.7191   -2.1075    0.7591 O   0  0  0  0  0  0  0  0  0  0  0  0
  1 14  2  0  0  0  0
  2  1  1  0  0  0  0
  2  4  2  0  0  0  0
  3  2  1  0  0  0  0
  4  9  1  0  0  0  0
  5  4  1  0  0  0  0
  5  7  1  0  0  0  0
  6  5  1  0  0  0  0
  8  5  1  0  0  0  0
  9 10  1  0  0  0  0
  9 12  1  0  0  0  0
 11  9  1  0  0  0  0
 13  1  1  0  0  0  0
M  CHG  1  13  -1
M  END
