1
q = 0.0, confidence = 0.982

 12 12  0  0  1  0  0  0  0  0999 V2000
   -1.3872    0.5039    0.8494 O   0  0  0  0  0  1  0  0  0  0  0  0
   -2.3178    1.3601    0.8350 C   0  0  1  0  0  3  0  0  0  0  0  0
   -3.5161    1.3348    0.0479 C   0  0  0  0  0  0  0  0  0  0  0  0
   -3.6520    0.4799   -0.6293 H   0  0  0  0  0  0  0  0  0  0  0  0
   -4.4458    2.3534    0.1721 C   0  0  0  0  0  0  0  0  0  0  0  0
   -5.3640    2.3190   -0.4343 H   0  0  0  0  0  0  0  0  0  0  0  0
   -4.2353    3.4440    1.0606 C   0  0  0  0  0  0  0  0  0  0  0  0
   -4.9673    4.2554    1.1615 H   0  0  0  0  0  0  0  0  0  0  0  0
   -3.0721    3.4649    1.8025 C   0  0  0  0  0  0  0  0  0  0  0  0
   -2.8046    4.2668    2.5043 H   0  0  0  0  0  0  0  0  0  0  0  0
   -2.1714    2.4521    1.6790 N   0  0  0  0  0  0  0  0  0  0  0  0
   -1.2769    2.4922    2.1875 H   0  0  0  0  0  0  0  0  0  0  0  0
  2  1  1  1  0  0  0
  2 11  1  0  0  0  0
  3  5  2  0  0  0  0
  3  2  1  0  0  0  0
  4  3  1  0  0  0  0
  5  7  1  0  0  0  0
  6  5  1  0  0  0  0
  7  8  1  0  0  0  0
  7  9  2  0  0  0  0
  9 10  1  0  0  0  0
 11  9  1  0  0  0  0
 11 12  1  0  0  0  0
M  END
