3
 OpenBabel05122313063D

  3  2  0  0  0  0  0  0  0  0999 V2000
   -2.0734   -0.2227   -1.9385 O   0  0  0  0  0  0  0  0  0  0  0  0
   -2.6845    0.5119   -2.1962 H   0  0  0  0  0  0  0  0  0  0  0  0
   -2.8608   -0.9126   -0.9293 O   0  0  0  0  0  1  0  0  0  0  0  0
  1  3  1  0  0  0  0
  2  1  1  0  0  0  0
M  END
