1
 OpenBabel05122313063D

 14 13  0  0  0  0  0  0  0  0999 V2000
   -0.0246   -0.0001    1.2411 O   0  0  0  0  0  1  0  0  0  0  0  0
   -0.6327   -0.0005    2.8272 Si  0  0  0  0  0  0  0  0  0  0  0  0
   -2.5123   -0.0004    2.6762 C   0  0  0  0  0  0  0  0  0  0  0  0
   -2.8572    0.8976    2.1237 H   0  0  0  0  0  0  0  0  0  0  0  0
   -2.9973   -0.0008    3.6742 H   0  0  0  0  0  0  0  0  0  0  0  0
   -2.8573   -0.8980    2.1231 H   0  0  0  0  0  0  0  0  0  0  0  0
    0.0036   -1.5580    3.6733 C   0  0  0  0  0  0  0  0  0  0  0  0
   -0.3872   -2.4655    3.1701 H   0  0  0  0  0  0  0  0  0  0  0  0
   -0.3085   -1.5952    4.7374 H   0  0  0  0  0  0  0  0  0  0  0  0
    1.1112   -1.5876    3.6323 H   0  0  0  0  0  0  0  0  0  0  0  0
    0.0037    1.5565    3.6742 C   0  0  0  0  0  0  0  0  0  0  0  0
   -0.3863    2.4642    3.1708 H   0  0  0  0  0  0  0  0  0  0  0  0
    1.1113    1.5856    3.6341 H   0  0  0  0  0  0  0  0  0  0  0  0
   -0.3094    1.5936    4.7380 H   0  0  0  0  0  0  0  0  0  0  0  0
  1  2  1  0  0  0  0
  2  7  1  0  0  0  0
  2 11  1  0  0  0  0
  3  2  1  0  0  0  0
  3  5  1  0  0  0  0
  4  3  1  0  0  0  0
  6  3  1  0  0  0  0
  7  9  1  0  0  0  0
  8  7  1  0  0  0  0
 10  7  1  0  0  0  0
 11 14  1  0  0  0  0
 12 11  1  0  0  0  0
 13 11  1  0  0  0  0
M  END
