2
 OpenBabel05122313063D

 41 40  0  0  0  0  0  0  0  0999 V2000
    2.6693   -0.1252    0.9571 P   0  0  0  0  0  4  0  0  0  0  0  0
    1.6298   -0.0932   -0.2025 O   0  0  0  0  0  1  0  0  0  0  0  0
    3.4852    1.4992    1.1068 C   0  0  0  0  0  0  0  0  0  0  0  0
    2.6730    2.1435    1.5121 H   0  0  0  0  0  0  0  0  0  0  0  0
    4.2919    1.4553    1.8694 H   0  0  0  0  0  0  0  0  0  0  0  0
    3.9730    2.0376   -0.2497 C   0  0  0  0  0  0  0  0  0  0  0  0
    3.2457    1.7375   -1.0352 H   0  0  0  0  0  0  0  0  0  0  0  0
    4.9416    1.5609   -0.5133 H   0  0  0  0  0  0  0  0  0  0  0  0
    4.1138    3.5686   -0.2787 C   0  0  0  0  0  0  0  0  0  0  0  0
    4.7489    3.8985    0.5744 H   0  0  0  0  0  0  0  0  0  0  0  0
    4.6763    3.8444   -1.1966 H   0  0  0  0  0  0  0  0  0  0  0  0
    2.7729    4.3078   -0.2644 C   0  0  0  0  0  0  0  0  0  0  0  0
    2.9225    5.4055   -0.3067 H   0  0  0  0  0  0  0  0  0  0  0  0
    2.1456    4.0121   -1.1309 H   0  0  0  0  0  0  0  0  0  0  0  0
    2.1724    4.0888    0.6425 H   0  0  0  0  0  0  0  0  0  0  0  0
    1.8564   -0.4905    2.5530 C   0  0  0  0  0  0  0  0  0  0  0  0
    2.6284   -0.7178    3.3176 H   0  0  0  0  0  0  0  0  0  0  0  0
    1.3919    0.4873    2.8153 H   0  0  0  0  0  0  0  0  0  0  0  0
    0.7497   -1.5599    2.4485 C   0  0  0  0  0  0  0  0  0  0  0  0
    1.1811   -2.5726    2.6077 H   0  0  0  0  0  0  0  0  0  0  0  0
    0.3297   -1.5409    1.4221 H   0  0  0  0  0  0  0  0  0  0  0  0
   -0.4071   -1.3108    3.4267 C   0  0  0  0  0  0  0  0  0  0  0  0
   -0.8496   -0.3220    3.1767 H   0  0  0  0  0  0  0  0  0  0  0  0
   -1.2010   -2.0628    3.2250 H   0  0  0  0  0  0  0  0  0  0  0  0
   -0.0147   -1.3589    4.9034 C   0  0  0  0  0  0  0  0  0  0  0  0
   -0.8913   -1.1954    5.5623 H   0  0  0  0  0  0  0  0  0  0  0  0
    0.4299   -2.3402    5.1751 H   0  0  0  0  0  0  0  0  0  0  0  0
    0.7301   -0.5755    5.1550 H   0  0  0  0  0  0  0  0  0  0  0  0
    3.9183   -1.3973    0.5449 C   0  0  0  0  0  0  0  0  0  0  0  0
    4.5228   -0.9601   -0.2796 H   0  0  0  0  0  0  0  0  0  0  0  0
    4.5998   -1.5241    1.4137 H   0  0  0  0  0  0  0  0  0  0  0  0
    3.2943   -2.7245    0.0952 C   0  0  0  0  0  0  0  0  0  0  0  0
    2.5074   -2.5056   -0.6574 H   0  0  0  0  0  0  0  0  0  0  0  0
    2.7709   -3.2044    0.9503 H   0  0  0  0  0  0  0  0  0  0  0  0
    4.3118   -3.7032   -0.4992 C   0  0  0  0  0  0  0  0  0  0  0  0
    4.8404   -3.2051   -1.3421 H   0  0  0  0  0  0  0  0  0  0  0  0
    5.0960   -3.9304    0.2569 H   0  0  0  0  0  0  0  0  0  0  0  0
    3.6675   -5.0000   -0.9894 C   0  0  0  0  0  0  0  0  0  0  0  0
    4.4162   -5.6921   -1.4238 H   0  0  0  0  0  0  0  0  0  0  0  0
    3.1561   -5.5352   -0.1622 H   0  0  0  0  0  0  0  0  0  0  0  0
    2.9054   -4.7958   -1.7708 H   0  0  0  0  0  0  0  0  0  0  0  0
  1  3  1  0  0  0  0
  1 16  1  0  0  0  0
  2  1  1  0  0  0  0
  3  4  1  0  0  0  0
  3  5  1  0  0  0  0
  6  3  1  0  0  0  0
  7  6  1  0  0  0  0
  8  6  1  0  0  0  0
  9 12  1  0  0  0  0
  9  6  1  0  0  0  0
  9 10  1  0  0  0  0
 11  9  1  0  0  0  0
 12 15  1  0  0  0  0
 13 12  1  0  0  0  0
 14 12  1  0  0  0  0
 16 18  1  0  0  0  0
 16 17  1  0  0  0  0
 19 16  1  0  0  0  0
 19 20  1  0  0  0  0
 19 22  1  0  0  0  0
 21 19  1  0  0  0  0
 22 25  1  0  0  0  0
 23 22  1  0  0  0  0
 24 22  1  0  0  0  0
 25 28  1  0  0  0  0
 25 27  1  0  0  0  0
 25 26  1  0  0  0  0
 29  1  1  0  0  0  0
 29 31  1  0  0  0  0
 30 29  1  0  0  0  0
 32 29  1  0  0  0  0
 32 34  1  0  0  0  0
 33 32  1  0  0  0  0
 35 32  1  0  0  0  0
 35 37  1  0  0  0  0
 36 35  1  0  0  0  0
 38 35  1  0  0  0  0
 38 40  1  0  0  0  0
 39 38  1  0  0  0  0
 41 38  1  0  0  0  0
M  END
