2
 OpenBabel05122313063D

 17 16  0  0  0  0  0  0  0  0999 V2000
   -2.4747    1.0932   -1.6358 S   0  0  0  0  0  0  0  0  0  0  0  0
   -1.9468    1.4348   -0.1848 O   0  0  0  0  0  0  0  0  0  0  0  0
   -1.3823    0.8128   -2.5849 O   0  0  0  0  0  0  0  0  0  0  0  0
   -3.5784    1.9974   -2.0008 O   0  0  0  0  0  0  0  0  0  0  0  0
   -3.2127   -0.6107   -1.2151 C   0  0  0  0  0  0  0  0  0  0  0  0
   -3.4848   -1.2207   -2.3797 F   0  0  0  0  0  0  0  0  0  0  0  0
   -2.2640   -1.3063   -0.5498 F   0  0  0  0  0  0  0  0  0  0  0  0
   -4.5125   -0.5280   -0.3523 C   0  0  0  0  0  0  0  0  0  0  0  0
   -5.5401   -0.1809   -1.1581 F   0  0  0  0  0  0  0  0  0  0  0  0
   -4.3677    0.4119    0.6159 F   0  0  0  0  0  0  0  0  0  0  0  0
   -4.8497   -1.8836    0.3559 C   0  0  0  0  0  0  0  0  0  0  0  0
   -4.6542   -2.9062   -0.5091 F   0  0  0  0  0  0  0  0  0  0  0  0
   -4.0210   -2.0340    1.4202 F   0  0  0  0  0  0  0  0  0  0  0  0
   -6.3187   -1.9769    0.8824 C   0  0  0  0  0  0  0  0  0  0  0  0
   -6.6313   -0.8778    1.5897 F   0  0  0  0  0  0  0  0  0  0  0  0
   -6.4268   -3.0504    1.6807 F   0  0  0  0  0  0  0  0  0  0  0  0
   -7.1776   -2.1065   -0.1360 F   0  0  0  0  0  0  0  0  0  0  0  0
  1  5  1  0  0  0  0
  1  2  1  0  0  0  0
  3  1  1  0  0  0  0
  4  1  1  0  0  0  0
  5  7  1  0  0  0  0
  5  8  1  0  0  0  0
  6  5  1  0  0  0  0
  8 11  1  0  0  0  0
  8 10  1  0  0  0  0
  9  8  1  0  0  0  0
 11 14  1  0  0  0  0
 11 13  1  0  0  0  0
 12 11  1  0  0  0  0
 14 15  1  0  0  0  0
 14 16  1  0  0  0  0
 17 14  1  0  0  0  0
M  END
