1
 OpenBabel05122313063D

 17 16  0  0  0  0  0  0  0  0999 V2000
   -1.1090   -1.4017   -0.3671 O   0  0  0  0  0  1  0  0  0  0  0  0
   -1.4745   -2.6088    0.2260 C   0  0  0  0  0  0  0  0  0  0  0  0
   -0.7366   -2.8769    1.0227 H   0  0  0  0  0  0  0  0  0  0  0  0
   -1.4565   -3.4222   -0.5411 H   0  0  0  0  0  0  0  0  0  0  0  0
   -2.8851   -2.5619    0.8671 C   0  0  0  0  0  0  0  0  0  0  0  0
   -3.1687   -3.9430    1.4792 C   0  0  0  0  0  0  0  0  0  0  0  0
   -3.1429   -4.7418    0.7081 H   0  0  0  0  0  0  0  0  0  0  0  0
   -4.1718   -3.9656    1.9529 H   0  0  0  0  0  0  0  0  0  0  0  0
   -2.4220   -4.1986    2.2602 H   0  0  0  0  0  0  0  0  0  0  0  0
   -2.9092   -1.4828    1.9628 C   0  0  0  0  0  0  0  0  0  0  0  0
   -2.1564   -1.6958    2.7487 H   0  0  0  0  0  0  0  0  0  0  0  0
   -3.9098   -1.4269    2.4397 H   0  0  0  0  0  0  0  0  0  0  0  0
   -2.6663   -0.4882    1.5394 H   0  0  0  0  0  0  0  0  0  0  0  0
   -3.9321   -2.2380   -0.2111 C   0  0  0  0  0  0  0  0  0  0  0  0
   -3.7136   -1.2624   -0.6875 H   0  0  0  0  0  0  0  0  0  0  0  0
   -4.9505   -2.1878    0.2270 H   0  0  0  0  0  0  0  0  0  0  0  0
   -3.9410   -3.0118   -1.0075 H   0  0  0  0  0  0  0  0  0  0  0  0
  1  2  1  0  0  0  0
  2  5  1  0  0  0  0
  2  3  1  0  0  0  0
  4  2  1  0  0  0  0
  5  6  1  0  0  0  0
  5 10  1  0  0  0  0
  6  8  1  0  0  0  0
  6  9  1  0  0  0  0
  7  6  1  0  0  0  0
 10 12  1  0  0  0  0
 10 11  1  0  0  0  0
 13 10  1  0  0  0  0
 14 16  1  0  0  0  0
 14  5  1  0  0  0  0
 15 14  1  0  0  0  0
 17 14  1  0  0  0  0
M  END
