1
 OpenBabel05122313063D

 23 22  0  0  0  0  0  0  0  0999 V2000
   -1.4812   -0.6396   -0.4233 O   0  0  0  0  0  1  0  0  0  0  0  0
   -3.0085   -1.3392   -0.3895 Si  0  0  0  0  0  0  0  0  0  0  0  0
   -3.1970   -2.2665    1.2832 C   0  0  0  0  0  0  0  0  0  0  0  0
   -1.9595   -3.1609    1.4875 C   0  0  0  0  0  0  0  0  0  0  0  0
   -1.0264   -2.5622    1.4901 H   0  0  0  0  0  0  0  0  0  0  0  0
   -1.8663   -3.9310    0.6928 H   0  0  0  0  0  0  0  0  0  0  0  0
   -2.0243   -3.6988    2.4602 H   0  0  0  0  0  0  0  0  0  0  0  0
   -3.1357   -2.5199   -1.8594 C   0  0  0  0  0  0  0  0  0  0  0  0
   -2.9262   -1.9712   -2.8005 H   0  0  0  0  0  0  0  0  0  0  0  0
   -4.1475   -2.9671   -1.9412 H   0  0  0  0  0  0  0  0  0  0  0  0
   -2.3971   -3.3430   -1.7829 H   0  0  0  0  0  0  0  0  0  0  0  0
   -3.2690   -1.2308    2.4219 C   0  0  0  0  0  0  0  0  0  0  0  0
   -3.3125   -1.7458    3.4085 H   0  0  0  0  0  0  0  0  0  0  0  0
   -4.1783   -0.5982    2.3445 H   0  0  0  0  0  0  0  0  0  0  0  0
   -2.3820   -0.5633    2.4203 H   0  0  0  0  0  0  0  0  0  0  0  0
   -4.3002    0.0313   -0.5732 C   0  0  0  0  0  0  0  0  0  0  0  0
   -4.2144    0.7746    0.2441 H   0  0  0  0  0  0  0  0  0  0  0  0
   -5.3321   -0.3764   -0.5614 H   0  0  0  0  0  0  0  0  0  0  0  0
   -4.1560    0.5671   -1.5341 H   0  0  0  0  0  0  0  0  0  0  0  0
   -4.4736   -3.1259    1.2666 C   0  0  0  0  0  0  0  0  0  0  0  0
   -4.4404   -3.9080    0.4796 H   0  0  0  0  0  0  0  0  0  0  0  0
   -5.3854   -2.5146    1.0968 H   0  0  0  0  0  0  0  0  0  0  0  0
   -4.6063   -3.6457    2.2424 H   0  0  0  0  0  0  0  0  0  0  0  0
  1  2  1  0  0  0  0
  2  3  1  0  0  0  0
  3  4  1  0  0  0  0
  3 12  1  0  0  0  0
  4  5  1  0  0  0  0
  4  7  1  0  0  0  0
  6  4  1  0  0  0  0
  8 11  1  0  0  0  0
  8  2  1  0  0  0  0
  9  8  1  0  0  0  0
 10  8  1  0  0  0  0
 12 13  1  0  0  0  0
 14 12  1  0  0  0  0
 15 12  1  0  0  0  0
 16 18  1  0  0  0  0
 16  2  1  0  0  0  0
 16 17  1  0  0  0  0
 19 16  1  0  0  0  0
 20  3  1  0  0  0  0
 20 23  1  0  0  0  0
 21 20  1  0  0  0  0
 22 20  1  0  0  0  0
M  END
