1
 OpenBabel05122313063D

 32 34  0  0  0  0  0  0  0  0999 V2000
    0.9448    0.7124   -0.2535 O   0  5  0  0  0  0  0  0  0  0  0  0
    1.0864    2.0457   -0.1051 C   0  0  0  0  0  0  0  0  0  0  0  0
    2.3759    2.5528    0.2349 C   0  0  0  0  0  0  0  0  0  0  0  0
    2.5410    3.9389    0.4177 C   0  0  0  0  0  0  0  0  0  0  0  0
    3.5390    4.3162    0.6877 H   0  0  0  0  0  0  0  0  0  0  0  0
    1.4602    4.8190    0.2854 C   0  0  0  0  0  0  0  0  0  0  0  0
    1.5993    5.8982    0.4463 H   0  0  0  0  0  0  0  0  0  0  0  0
    0.2061    4.3166   -0.0788 C   0  0  0  0  0  0  0  0  0  0  0  0
   -0.6390    5.0033   -0.2375 H   0  0  0  0  0  0  0  0  0  0  0  0
   -0.0072    2.9400   -0.3048 C   0  0  0  0  0  0  0  0  0  0  0  0
    3.5532    1.6538    0.3723 C   0  0  0  0  0  0  0  0  0  0  0  0
    4.6963    1.8657   -0.4313 C   0  0  0  0  0  0  0  0  0  0  0  0
    4.6907    2.6867   -1.1649 H   0  0  0  0  0  0  0  0  0  0  0  0
    5.8181    1.0306   -0.3167 C   0  0  0  0  0  0  0  0  0  0  0  0
    6.6974    1.2067   -0.9553 H   0  0  0  0  0  0  0  0  0  0  0  0
    5.8160   -0.0299    0.6043 C   0  0  0  0  0  0  0  0  0  0  0  0
    6.6951   -0.6868    0.6927 H   0  0  0  0  0  0  0  0  0  0  0  0
    4.6883   -0.2424    1.4137 C   0  0  0  0  0  0  0  0  0  0  0  0
    4.6705   -1.0684    2.1410 H   0  0  0  0  0  0  0  0  0  0  0  0
    3.5691    0.5944    1.3034 C   0  0  0  0  0  0  0  0  0  0  0  0
    2.6919    0.4142    1.9391 H   0  0  0  0  0  0  0  0  0  0  0  0
   -1.3365    2.5064   -0.8111 C   0  0  0  0  0  0  0  0  0  0  0  0
   -1.4477    1.7374   -1.9894 C   0  0  0  0  0  0  0  0  0  0  0  0
   -0.5397    1.3944   -2.5043 H   0  0  0  0  0  0  0  0  0  0  0  0
   -2.7057    1.4162   -2.5153 C   0  0  0  0  0  0  0  0  0  0  0  0
   -2.7667    0.8157   -3.4355 H   0  0  0  0  0  0  0  0  0  0  0  0
   -3.8759    1.8521   -1.8734 C   0  0  0  0  0  0  0  0  0  0  0  0
   -4.8635    1.5855   -2.2787 H   0  0  0  0  0  0  0  0  0  0  0  0
   -3.7794    2.6182   -0.7025 C   0  0  0  0  0  0  0  0  0  0  0  0
   -4.6902    2.9454   -0.1796 H   0  0  0  0  0  0  0  0  0  0  0  0
   -2.5211    2.9444   -0.1787 C   0  0  0  0  0  0  0  0  0  0  0  0
   -2.4494    3.5334    0.7484 H   0  0  0  0  0  0  0  0  0  0  0  0
  1  2  1  0  0  0  0
  2  3  1  0  0  0  0
  3 11  1  0  0  0  0
  3  4  2  0  0  0  0
  4  5  1  0  0  0  0
  6  4  1  0  0  0  0
  6  7  1  0  0  0  0
  8  6  2  0  0  0  0
  9  8  1  0  0  0  0
 10  2  2  0  0  0  0
 10  8  1  0  0  0  0
 11 20  1  0  0  0  0
 12 14  1  0  0  0  0
 12 11  2  0  0  0  0
 13 12  1  0  0  0  0
 14 16  2  0  0  0  0
 15 14  1  0  0  0  0
 16 17  1  0  0  0  0
 16 18  1  0  0  0  0
 18 19  1  0  0  0  0
 20 18  2  0  0  0  0
 20 21  1  0  0  0  0
 22 10  1  0  0  0  0
 22 31  1  0  0  0  0
 23 22  2  0  0  0  0
 24 23  1  0  0  0  0
 25 23  1  0  0  0  0
 25 27  2  0  0  0  0
 26 25  1  0  0  0  0
 27 29  1  0  0  0  0
 28 27  1  0  0  0  0
 29 30  1  0  0  0  0
 29 31  2  0  0  0  0
 31 32  1  0  0  0  0
M  CHG  1   1  -1
M  END
