1
 OpenBabel05122313063D

 35 36  0  0  1  0  0  0  0  0999 V2000
    0.2772   -0.9462   -0.5134 O   0  5  0  0  0  0  0  0  0  0  0  0
   -0.9446   -0.6995   -0.4542 C   0  0  0  0  0  0  0  0  0  0  0  0
   -1.5680    0.6145   -0.2967 C   0  0  0  0  0  0  0  0  0  0  0  0
   -3.0656    0.3323   -0.1931 C   0  0  1  0  0  0  0  0  0  0  0  0
   -3.6888    1.1057    0.2863 H   0  0  0  0  0  0  0  0  0  0  0  0
   -3.5156   -0.0702   -1.6265 C   0  0  0  0  0  0  0  0  0  0  0  0
   -3.2153    0.6887   -2.3746 H   0  0  0  0  0  0  0  0  0  0  0  0
   -4.6178   -0.1685   -1.6824 H   0  0  0  0  0  0  0  0  0  0  0  0
   -2.8036   -1.4371   -1.8389 C   0  0  0  0  0  0  0  0  0  0  0  0
   -2.0855   -1.4274   -2.6824 H   0  0  0  0  0  0  0  0  0  0  0  0
   -3.5246   -2.2544   -2.0411 H   0  0  0  0  0  0  0  0  0  0  0  0
   -2.0722   -1.7200   -0.4815 C   0  0  1  0  0  0  0  0  0  0  0  0
   -1.6414   -3.1553   -0.2585 C   0  0  0  0  0  0  0  0  0  0  0  0
   -0.9111   -3.4673   -1.0318 H   0  0  0  0  0  0  0  0  0  0  0  0
   -2.5074   -3.8451   -0.3054 H   0  0  0  0  0  0  0  0  0  0  0  0
   -1.1499   -3.2784    0.7270 H   0  0  0  0  0  0  0  0  0  0  0  0
   -3.0462   -1.0411    0.5626 C   0  0  0  0  0  0  0  0  0  0  0  0
   -2.4492   -0.9364    1.9745 C   0  0  0  0  0  0  0  0  0  0  0  0
   -3.1331   -0.3652    2.6358 H   0  0  0  0  0  0  0  0  0  0  0  0
   -1.4614   -0.4303    2.0041 H   0  0  0  0  0  0  0  0  0  0  0  0
   -2.3285   -1.9436    2.4230 H   0  0  0  0  0  0  0  0  0  0  0  0
   -4.4179   -1.7192    0.6555 C   0  0  0  0  0  0  0  0  0  0  0  0
   -4.3268   -2.7052    1.1542 H   0  0  0  0  0  0  0  0  0  0  0  0
   -4.9041   -1.8855   -0.3241 H   0  0  0  0  0  0  0  0  0  0  0  0
   -5.1046   -1.1028    1.2718 H   0  0  0  0  0  0  0  0  0  0  0  0
   -0.7443    1.6370   -0.2773 N   0  0  0  0  0  2  0  0  0  0  0  0
   -1.0269    2.8991   -0.1182 N   0  0  0  0  0  0  0  0  0  0  0  0
    0.1168    3.7913    0.0656 C   0  0  0  0  0  0  0  0  0  0  0  0
    0.9551    3.4253   -0.5617 H   0  0  0  0  0  0  0  0  0  0  0  0
    0.4403    3.7858    1.1293 H   0  0  0  0  0  0  0  0  0  0  0  0
   -0.1659    4.8148   -0.2448 H   0  0  0  0  0  0  0  0  0  0  0  0
   -2.3556    3.3799    0.2357 C   0  0  0  0  0  0  0  0  0  0  0  0
   -3.1064    3.0433   -0.5058 H   0  0  0  0  0  0  0  0  0  0  0  0
   -2.3409    4.4840    0.2452 H   0  0  0  0  0  0  0  0  0  0  0  0
   -2.6542    3.0174    1.2438 H   0  0  0  0  0  0  0  0  0  0  0  0
  1  2  1  0  0  0  0
  2  3  2  0  0  0  0
  3 26  1  0  0  0  0
  3  4  1  0  0  0  0
  4  5  1  1  0  0  0
  4 17  1  0  0  0  0
  6  4  1  0  0  0  0
  7  6  1  0  0  0  0
  8  6  1  0  0  0  0
  9  6  1  0  0  0  0
  9 12  1  0  0  0  0
 10  9  1  0  0  0  0
 11  9  1  0  0  0  0
 12  2  1  0  0  0  0
 12 13  1  1  0  0  0
 12 17  1  0  0  0  0
 13 16  1  0  0  0  0
 14 13  1  0  0  0  0
 15 13  1  0  0  0  0
 17 22  1  0  0  0  0
 17 18  1  0  0  0  0
 18 20  1  0  0  0  0
 18 21  1  0  0  0  0
 18 19  1  0  0  0  0
 22 23  1  0  0  0  0
 22 25  1  0  0  0  0
 24 22  1  0  0  0  0
 26 27  1  0  0  0  0
 27 28  1  0  0  0  0
 27 32  1  0  0  0  0
 28 30  1  0  0  0  0
 29 28  1  0  0  0  0
 31 28  1  0  0  0  0
 32 34  1  0  0  0  0
 32 35  1  0  0  0  0
 33 32  1  0  0  0  0
M  CHG  1   1  -1
M  END
