2
 OpenBabel05122313063D

 33 34  0  0  0  0  0  0  0  0999 V2000
    1.1443    3.6286   -0.3369 O   0  0  0  0  0  0  0  0  0  0  0  0
    1.3711    1.1393   -1.0958 O   0  5  0  0  0  0  0  0  0  0  0  0
    2.7797   -0.8471   -1.7872 N   0  0  0  0  0  4  0  0  0  0  0  0
    1.9223   -0.3216   -1.4321 H   0  0  0  0  0  0  0  0  0  0  0  0
    2.3844   -6.5746   -1.8713 C   0  0  0  0  0  0  0  0  0  0  0  0
    2.1848   -6.9608   -0.8499 H   0  0  0  0  0  0  0  0  0  0  0  0
    3.3038   -7.0638   -2.2458 H   0  0  0  0  0  0  0  0  0  0  0  0
    1.5382   -6.9064   -2.5085 H   0  0  0  0  0  0  0  0  0  0  0  0
    2.5104   -5.0736   -1.8702 C   0  0  0  0  0  0  0  0  0  0  0  0
    1.4429   -4.2599   -1.4313 C   0  0  0  0  0  0  0  0  0  0  0  0
    0.5094   -4.7290   -1.0831 H   0  0  0  0  0  0  0  0  0  0  0  0
    1.5454   -2.8681   -1.4223 C   0  0  0  0  0  0  0  0  0  0  0  0
    0.7134   -2.2390   -1.0699 H   0  0  0  0  0  0  0  0  0  0  0  0
    2.7394   -2.2468   -1.8517 C   0  0  0  0  0  0  0  0  0  0  0  0
    3.8152   -3.0387   -2.2979 C   0  0  0  0  0  0  0  0  0  0  0  0
    4.7515   -2.5785   -2.6451 H   0  0  0  0  0  0  0  0  0  0  0  0
    3.6901   -4.4329   -2.3037 C   0  0  0  0  0  0  0  0  0  0  0  0
    4.5356   -5.0442   -2.6557 H   0  0  0  0  0  0  0  0  0  0  0  0
    3.7891   -0.0097   -1.9910 C   0  0  0  0  0  0  0  0  0  0  0  0
    4.7583   -0.4185   -2.3243 H   0  0  0  0  0  0  0  0  0  0  0  0
    3.6675    1.3822   -1.7340 C   0  0  0  0  0  0  0  0  0  0  0  0
    4.7906    2.2601   -1.8783 C   0  0  0  0  0  0  0  0  0  0  0  0
    5.7339    1.8578   -2.2785 H   0  0  0  0  0  0  0  0  0  0  0  0
    4.6912    3.5846   -1.4947 C   0  0  0  0  0  0  0  0  0  0  0  0
    5.5552    4.2570   -1.5946 H   0  0  0  0  0  0  0  0  0  0  0  0
    3.4762    4.0988   -0.9534 C   0  0  0  0  0  0  0  0  0  0  0  0
    3.4278    5.1510   -0.6400 H   0  0  0  0  0  0  0  0  0  0  0  0
    2.3591    3.2810   -0.8244 C   0  0  0  0  0  0  0  0  0  0  0  0
    2.4137    1.8960   -1.2253 C   0  0  0  0  0  0  0  0  0  0  0  0
    0.9818    4.8769    0.3207 C   0  0  0  0  0  0  0  0  0  0  0  0
   -0.0559    4.8864    0.6987 H   0  0  0  0  0  0  0  0  0  0  0  0
    1.1267    5.7225   -0.3858 H   0  0  0  0  0  0  0  0  0  0  0  0
    1.6889    4.9708    1.1726 H   0  0  0  0  0  0  0  0  0  0  0  0
  1 30  1  0  0  0  0
  3  4  1  0  0  0  0
  5  9  1  0  0  0  0
  5  6  1  0  0  0  0
  7  5  1  0  0  0  0
  8  5  1  0  0  0  0
  9 10  1  0  0  0  0
 10 12  2  0  0  0  0
 10 11  1  0  0  0  0
 12 13  1  0  0  0  0
 14  3  1  0  0  0  0
 14 12  1  0  0  0  0
 15 14  2  0  0  0  0
 16 15  1  0  0  0  0
 17 15  1  0  0  0  0
 17  9  2  0  0  0  0
 18 17  1  0  0  0  0
 19  3  2  0  0  0  0
 19 21  1  0  0  0  0
 20 19  1  0  0  0  0
 21 29  1  0  0  0  0
 22 21  2  0  0  0  0
 22 24  1  0  0  0  0
 23 22  1  0  0  0  0
 24 26  2  0  0  0  0
 25 24  1  0  0  0  0
 26 28  1  0  0  0  0
 26 27  1  0  0  0  0
 28  1  1  0  0  0  0
 29  2  1  0  0  0  0
 29 28  2  0  0  0  0
 30 31  1  0  0  0  0
 30 33  1  0  0  0  0
 32 30  1  0  0  0  0
M  CHG  1   2  -1
M  END
