1
 OpenBabel05122313063D

 21 21  0  0  1  0  0  0  0  0999 V2000
    0.8080    0.1847   -0.9963 O   0  0  0  0  0  1  0  0  0  0  0  0
    1.2870   -0.7626   -0.3059 C   0  0  2  0  0  3  0  0  0  0  0  0
    2.6161   -1.0609   -0.3506 N   0  0  0  0  0  0  0  0  0  0  0  0
    0.4545   -1.5282    0.4802 N   0  0  0  0  0  0  0  0  0  0  0  0
    0.8555   -1.8831    1.3508 H   0  0  0  0  0  0  0  0  0  0  0  0
   -0.4328   -1.0261    0.6372 H   0  0  0  0  0  0  0  0  0  0  0  0
    3.5203   -0.0301   -0.8821 C   0  0  0  0  0  0  0  0  0  0  0  0
    3.7834    0.6580   -0.0442 H   0  0  0  0  0  0  0  0  0  0  0  0
    2.9450    0.5590   -1.6177 H   0  0  0  0  0  0  0  0  0  0  0  0
    3.2161   -2.0382    0.5570 C   0  0  0  0  0  0  0  0  0  0  0  0
    2.4803   -2.8423    0.7507 H   0  0  0  0  0  0  0  0  0  0  0  0
    3.4444   -1.5367    1.5289 H   0  0  0  0  0  0  0  0  0  0  0  0
    4.7744   -0.6444   -1.4982 C   0  0  0  0  0  0  0  0  0  0  0  0
    4.4956   -1.2090   -2.4148 H   0  0  0  0  0  0  0  0  0  0  0  0
    5.4521    0.1741   -1.8160 H   0  0  0  0  0  0  0  0  0  0  0  0
    5.4706   -1.5841   -0.5088 C   0  0  0  0  0  0  0  0  0  0  0  0
    5.8300   -0.9987    0.3670 H   0  0  0  0  0  0  0  0  0  0  0  0
    6.3653   -2.0530   -0.9676 H   0  0  0  0  0  0  0  0  0  0  0  0
    4.4857   -2.6571   -0.0367 C   0  0  0  0  0  0  0  0  0  0  0  0
    4.2002   -3.3000   -0.8978 H   0  0  0  0  0  0  0  0  0  0  0  0
    4.9460   -3.3204    0.7243 H   0  0  0  0  0  0  0  0  0  0  0  0
  2  1  1  6  0  0  0
  2  4  1  0  0  0  0
  3  2  1  0  0  0  0
  3 10  1  0  0  0  0
  4  6  1  0  0  0  0
  4  5  1  0  0  0  0
  7  3  1  0  0  0  0
  7  8  1  0  0  0  0
  9  7  1  0  0  0  0
 10 11  1  0  0  0  0
 10 12  1  0  0  0  0
 13  7  1  0  0  0  0
 13 16  1  0  0  0  0
 14 13  1  0  0  0  0
 15 13  1  0  0  0  0
 16 19  1  0  0  0  0
 16 17  1  0  0  0  0
 18 16  1  0  0  0  0
 19 10  1  0  0  0  0
 19 21  1  0  0  0  0
 20 19  1  0  0  0  0
M  END
