1
 OpenBabel05122313063D

  8  7  0  0  0  0  0  0  0  0999 V2000
   -0.0755    0.1639   -2.0179 O   0  5  0  0  0  0  0  0  0  0  0  0
   -1.3665    2.0305   -2.2252 O   0  0  0  0  0  0  0  0  0  0  0  0
   -0.8338    0.8308   -4.0279 O   0  0  0  0  0  0  0  0  0  0  0  0
   -0.7749    1.0574   -2.6788 C   0  0  0  0  0  0  0  0  0  0  0  0
   -0.1676   -0.3010   -4.5698 C   0  0  0  0  0  0  0  0  0  0  0  0
    0.9136   -0.3088   -4.3178 H   0  0  0  0  0  0  0  0  0  0  0  0
   -0.2892   -0.2360   -5.6675 H   0  0  0  0  0  0  0  0  0  0  0  0
   -0.6185   -1.2552   -4.2174 H   0  0  0  0  0  0  0  0  0  0  0  0
  3  4  1  0  0  0  0
  4  2  2  0  0  0  0
  4  1  1  0  0  0  0
  5  6  1  0  0  0  0
  5  8  1  0  0  0  0
  5  3  1  0  0  0  0
  7  5  1  0  0  0  0
M  CHG  1   1  -1
M  END
