1
 OpenBabel05122313063D

  5  4  0  0  0  0  0  0  0  0999 V2000
   -0.0414    1.7727    0.5804 O   0  5  0  0  0  0  0  0  0  0  0  0
    0.3547    2.6152   -0.3139 C   0  0  0  0  0  0  0  0  0  0  0  0
    0.6496    2.3879   -1.5015 O   0  0  0  0  0  0  0  0  0  0  0  0
    0.4304    3.8898    0.1764 O   0  0  0  0  0  0  0  0  0  0  0  0
    0.7533    4.4152   -0.5823 H   0  0  0  0  0  0  0  0  0  0  0  0
  2  4  1  0  0  0  0
  2  1  1  0  0  0  0
  3  2  2  0  0  0  0
  5  4  1  0  0  0  0
M  CHG  1   1  -1
M  END
