54
 OpenBabel05122313063D

 55 59  0  0  1  0  0  0  0  0999 V2000
    1.5392    0.1889    0.2126 As  0  0  1  0  0  0  0  0  0  0  0  0
    3.3727    0.5437   -0.3138 C   0  0  0  0  0  0  0  0  0  0  0  0
    4.2633   -0.5494   -0.3216 C   0  0  0  0  0  0  0  0  0  0  0  0
    3.8948   -1.5527   -0.0485 H   0  0  0  0  0  0  0  0  0  0  0  0
    5.5994   -0.3491   -0.7002 C   0  0  0  0  0  0  0  0  0  0  0  0
    6.2940   -1.2028   -0.7054 H   0  0  0  0  0  0  0  0  0  0  0  0
    6.0457    0.9266   -1.0806 C   0  0  0  0  0  0  0  0  0  0  0  0
    7.0938    1.0774   -1.3811 H   0  0  0  0  0  0  0  0  0  0  0  0
    5.1508    2.0085   -1.0916 C   0  0  0  0  0  0  0  0  0  0  0  0
    5.4935    3.0069   -1.4037 H   0  0  0  0  0  0  0  0  0  0  0  0
    3.8134    1.8216   -0.7099 C   0  0  0  0  0  0  0  0  0  0  0  0
    3.1189    2.6722   -0.7310 H   0  0  0  0  0  0  0  0  0  0  0  0
    1.3118    0.5987    2.1688 C   0  0  1  0  0  0  0  0  0  0  0  0
    1.7967   -0.1187    2.8536 H   0  0  0  0  0  0  0  0  0  0  0  0
    1.7783    2.0343    2.2564 C   0  0  0  0  0  0  0  0  0  0  0  0
    2.6066    2.4927    3.4142 C   0  0  0  0  0  0  0  0  0  0  0  0
    3.5500    1.9077    3.4693 H   0  0  0  0  0  0  0  0  0  0  0  0
    2.0805    2.3284    4.3796 H   0  0  0  0  0  0  0  0  0  0  0  0
    2.8741    3.5645    3.3487 H   0  0  0  0  0  0  0  0  0  0  0  0
    1.4629    4.2436    0.9628 C   0  0  0  0  0  0  0  0  0  0  0  0
    2.0916    4.7352    1.7293 H   0  0  0  0  0  0  0  0  0  0  0  0
    0.4714    4.7476    0.9628 H   0  0  0  0  0  0  0  0  0  0  0  0
    1.9128    4.4543   -0.0323 H   0  0  0  0  0  0  0  0  0  0  0  0
    1.3208    2.7727    1.2013 C   0  0  0  0  0  0  0  0  0  0  0  0
    0.5114    1.9223    0.2386 C   0  0  2  0  0  0  0  0  0  0  0  0
    0.2857    2.3892   -0.7373 H   0  0  0  0  0  0  0  0  0  0  0  0
   -0.7510    1.4123    1.0069 C   0  0  2  0  0  0  0  0  0  0  0  0
   -1.3250    2.2941    1.3634 H   0  0  0  0  0  0  0  0  0  0  0  0
   -0.2404    0.5519    2.2112 C   0  0  0  0  0  0  0  0  0  0  0  0
   -0.6119    0.9688    3.1685 H   0  0  0  0  0  0  0  0  0  0  0  0
   -0.5919   -0.4984    2.1414 H   0  0  0  0  0  0  0  0  0  0  0  0
   -2.7566    1.8745   -1.0764 C   0  0  0  0  0  0  0  0  0  0  0  0
   -3.6832    2.7294   -0.4464 C   0  0  0  0  0  0  0  0  0  0  0  0
   -3.9513    2.5826    0.6110 H   0  0  0  0  0  0  0  0  0  0  0  0
   -4.2878    3.7612   -1.1780 C   0  0  0  0  0  0  0  0  0  0  0  0
   -5.0144    4.4260   -0.6872 H   0  0  0  0  0  0  0  0  0  0  0  0
   -3.9744    3.9386   -2.5361 C   0  0  0  0  0  0  0  0  0  0  0  0
   -4.4538    4.7473   -3.1083 H   0  0  0  0  0  0  0  0  0  0  0  0
   -3.0588    3.0807   -3.1654 C   0  0  0  0  0  0  0  0  0  0  0  0
   -2.8208    3.2128   -4.2316 H   0  0  0  0  0  0  0  0  0  0  0  0
   -2.4471    2.0469   -2.4404 C   0  0  0  0  0  0  0  0  0  0  0  0
   -1.7360    1.3558   -2.9169 H   0  0  0  0  0  0  0  0  0  0  0  0
   -3.0987   -0.3881    0.8114 C   0  0  0  0  0  0  0  0  0  0  0  0
   -3.6361    0.1385    2.0068 C   0  0  0  0  0  0  0  0  0  0  0  0
   -3.3045    1.1146    2.3943 H   0  0  0  0  0  0  0  0  0  0  0  0
   -4.5878   -0.5988    2.7240 C   0  0  0  0  0  0  0  0  0  0  0  0
   -5.0068   -0.1914    3.6563 H   0  0  0  0  0  0  0  0  0  0  0  0
   -4.9926   -1.8616    2.2585 C   0  0  0  0  0  0  0  0  0  0  0  0
   -5.7334   -2.4427    2.8286 H   0  0  0  0  0  0  0  0  0  0  0  0
   -4.4420   -2.3891    1.0806 C   0  0  0  0  0  0  0  0  0  0  0  0
   -4.7357   -3.3895    0.7292 H   0  0  0  0  0  0  0  0  0  0  0  0
   -3.4957   -1.6578    0.3471 C   0  0  0  0  0  0  0  0  0  0  0  0
   -3.0210   -2.0939   -0.5488 H   0  0  0  0  0  0  0  0  0  0  0  0
   -1.1691   -0.2932   -1.2720 O   0  0  0  0  0  1  0  0  0  0  0  0
   -1.8972    0.5464   -0.1720 P   0  0  0  0  0  4  0  0  0  0  0  0
  1  2  1  6  0  0  0
  1 25  1  0  0  0  0
  1 13  1  0  0  0  0
  3  2  1  0  0  0  0
  3  4  1  0  0  0  0
  5  3  2  0  0  0  0
  6  5  1  0  0  0  0
  7  5  1  0  0  0  0
  8  7  1  0  0  0  0
  9  7  2  0  0  0  0
  9 11  1  0  0  0  0
 10  9  1  0  0  0  0
 11  2  2  0  0  0  0
 12 11  1  0  0  0  0
 13 29  1  0  0  0  0
 13 15  1  0  0  0  0
 13 14  1  1  0  0  0
 15 16  1  0  0  0  0
 16 17  1  0  0  0  0
 16 18  1  0  0  0  0
 19 16  1  0  0  0  0
 20 24  1  0  0  0  0
 20 21  1  0  0  0  0
 22 20  1  0  0  0  0
 23 20  1  0  0  0  0
 24 15  2  0  0  0  0
 25 26  1  6  0  0  0
 25 27  1  0  0  0  0
 25 24  1  0  0  0  0
 27 28  1  1  0  0  0
 27 29  1  0  0  0  0
 29 30  1  0  0  0  0
 31 29  1  0  0  0  0
 32 33  1  0  0  0  0
 32 55  1  0  0  0  0
 33 34  1  0  0  0  0
 35 36  1  0  0  0  0
 35 33  2  0  0  0  0
 37 35  1  0  0  0  0
 38 37  1  0  0  0  0
 39 37  2  0  0  0  0
 39 41  1  0  0  0  0
 40 39  1  0  0  0  0
 41 32  2  0  0  0  0
 42 41  1  0  0  0  0
 43 44  1  0  0  0  0
 44 45  1  0  0  0  0
 44 46  2  0  0  0  0
 46 47  1  0  0  0  0
 48 46  1  0  0  0  0
 48 49  1  0  0  0  0
 50 48  2  0  0  0  0
 51 50  1  0  0  0  0
 52 43  2  0  0  0  0
 52 50  1  0  0  0  0
 53 52  1  0  0  0  0
 54 55  1  0  0  0  0
 55 43  1  0  0  0  0
 55 27  1  0  0  0  0
M  END
