2
 OpenBabel05122313063D

  5  4  0  0  0  0  0  0  0  0999 V2000
   -2.5803   -0.0092    0.2700 S   0  0  0  0  0  0  0  0  0  0  0  0
   -1.0093   -0.0239    0.7709 O   0  0  0  0  0  0  0  0  0  0  0  0
   -2.7387   -1.3701   -0.3949 O   0  0  0  0  0  0  0  0  0  0  0  0
   -3.3581    0.2075    1.4936 O   0  0  0  0  0  0  0  0  0  0  0  0
   -2.5902    1.1123   -0.7607 O   0  0  0  0  0  0  0  0  0  0  0  0
  1  2  1  0  0  0  0
  1  4  1  0  0  0  0
  3  1  1  0  0  0  0
  5  1  1  0  0  0  0
M  END
