21
 OpenBabel05122313063D

 22 22  0  0  0  0  0  0  0  0999 V2000
   -2.8308    2.9650    0.6748 C   0  0  0  0  0  0  0  0  0  0  0  0
   -2.0487    1.9277   -1.4817 C   0  0  0  0  0  0  0  0  0  0  0  0
   -3.8163    0.7456   -0.0596 C   0  0  0  0  0  0  0  0  0  0  0  0
   -4.1993    0.1350    1.1555 C   0  0  0  0  0  0  0  0  0  0  0  0
   -5.2926   -0.7409    1.2078 C   0  0  0  0  0  0  0  0  0  0  0  0
   -6.0358   -1.0154    0.0473 C   0  0  0  0  0  0  0  0  0  0  0  0
   -5.6732   -0.4038   -1.1617 C   0  0  0  0  0  0  0  0  0  0  0  0
   -4.5702    0.4649   -1.2147 C   0  0  0  0  0  0  0  0  0  0  0  0
   -2.5811    1.6472   -0.0783 C   0  0  0  0  0  0  0  0  0  0  0  0
   -1.8754    3.5210    0.7500 H   0  0  0  0  0  0  0  0  0  0  0  0
   -3.5752    3.5924    0.1451 H   0  0  0  0  0  0  0  0  0  0  0  0
   -3.2028    2.7664    1.6985 H   0  0  0  0  0  0  0  0  0  0  0  0
   -2.7319    2.6095   -2.0245 H   0  0  0  0  0  0  0  0  0  0  0  0
   -1.0615    2.4168   -1.3983 H   0  0  0  0  0  0  0  0  0  0  0  0
   -1.9186    1.0010   -2.0697 H   0  0  0  0  0  0  0  0  0  0  0  0
   -3.6096    0.3369    2.0611 H   0  0  0  0  0  0  0  0  0  0  0  0
   -5.5692   -1.2121    2.1640 H   0  0  0  0  0  0  0  0  0  0  0  0
   -6.8966   -1.7004    0.0872 H   0  0  0  0  0  0  0  0  0  0  0  0
   -6.2492   -0.6072   -2.0777 H   0  0  0  0  0  0  0  0  0  0  0  0
   -4.2926    0.9207   -2.1752 H   0  0  0  0  0  0  0  0  0  0  0  0
   -0.3307    1.3794    0.6758 O   0  0  0  0  0  1  0  0  0  0  0  0
   -1.6424    0.8489    0.7128 O   0  0  0  0  0  0  0  0  0  0  0  0
  1 10  1  0  0  0  0
  1 12  1  0  0  0  0
  2 14  1  0  0  0  0
  2  9  1  0  0  0  0
  3  4  1  0  0  0  0
  4  5  2  0  0  0  0
  4 16  1  0  0  0  0
  5 17  1  0  0  0  0
  6 18  1  0  0  0  0
  6  5  1  0  0  0  0
  7  6  2  0  0  0  0
  8  7  1  0  0  0  0
  8  3  2  0  0  0  0
  9  3  1  0  0  0  0
  9  1  1  0  0  0  0
  9 22  1  0  0  0  0
 11  1  1  0  0  0  0
 13  2  1  0  0  0  0
 15  2  1  0  0  0  0
 19  7  1  0  0  0  0
 20  8  1  0  0  0  0
 21 22  1  0  0  0  0
M  END
