1
 OpenBabel05122313063D

 14 14  0  0  0  0  0  0  0  0999 V2000
   -0.0753   -0.4561    1.1840 O   0  5  0  0  0  0  0  0  0  0  0  0
   -6.2755   -0.4249    0.2502 O   0  0  0  0  0  0  0  0  0  0  0  0
   -5.5939   -0.0121   -1.7875 O   0  0  0  0  0  0  0  0  0  0  0  0
   -5.3858   -0.2448   -0.5901 N   0  0  0  0  0  0  0  0  0  0  0  0
   -1.3094   -0.4195    0.7415 C   0  0  0  0  0  0  0  0  0  0  0  0
   -2.3960   -0.6233    1.6516 C   0  0  0  0  0  0  0  0  0  0  0  0
   -3.7165   -0.5666    1.2179 C   0  0  0  0  0  0  0  0  0  0  0  0
   -3.9973   -0.3097   -0.1387 C   0  0  0  0  0  0  0  0  0  0  0  0
   -2.9573   -0.1168   -1.0652 C   0  0  0  0  0  0  0  0  0  0  0  0
   -1.6344   -0.1743   -0.6321 C   0  0  0  0  0  0  0  0  0  0  0  0
   -2.1543   -0.8154    2.7074 H   0  0  0  0  0  0  0  0  0  0  0  0
   -4.5601   -0.7131    1.9060 H   0  0  0  0  0  0  0  0  0  0  0  0
   -3.2199    0.0710   -2.1154 H   0  0  0  0  0  0  0  0  0  0  0  0
   -0.7933   -0.0432   -1.3353 H   0  0  0  0  0  0  0  0  0  0  0  0
  3  4  2  0  0  0  0
  4  8  1  0  0  0  0
  4  2  2  0  0  0  0
  5  1  1  0  0  0  0
  5  6  1  0  0  0  0
  6 11  1  0  0  0  0
  7  6  2  0  0  0  0
  7 12  1  0  0  0  0
  8  7  1  0  0  0  0
  9 10  1  0  0  0  0
  9  8  2  0  0  0  0
 10  5  2  0  0  0  0
 13  9  1  0  0  0  0
 14 10  1  0  0  0  0
M  CHG  1   1  -1
M  END
