1
 OpenBabel05122313063D

 29 30  0  0  0  0  0  0  0  0999 V2000
   -0.2312   -0.8234   -0.8937 O   0  5  0  0  0  0  0  0  0  0  0  0
    2.0216   -0.1609   -0.4978 C   0  0  0  0  0  0  0  0  0  0  0  0
    1.0766   -1.1071   -0.8460 C   0  0  0  0  0  0  0  0  0  0  0  0
    1.3714   -2.5344   -1.2256 C   0  0  0  0  0  0  0  0  0  0  0  0
    1.6403    1.2568   -0.2698 C   0  0  0  0  0  0  0  0  0  0  0  0
    0.7637    1.9441   -1.1422 C   0  0  0  0  0  0  0  0  0  0  0  0
    0.3824    3.2698   -0.8945 C   0  0  0  0  0  0  0  0  0  0  0  0
    0.8764    3.9509    0.2313 C   0  0  0  0  0  0  0  0  0  0  0  0
    1.7744    3.2950    1.0909 C   0  0  0  0  0  0  0  0  0  0  0  0
    2.1551    1.9693    0.8401 C   0  0  0  0  0  0  0  0  0  0  0  0
    3.4512   -0.5102   -0.2891 C   0  0  0  0  0  0  0  0  0  0  0  0
    3.8492   -1.6099    0.5075 C   0  0  0  0  0  0  0  0  0  0  0  0
    5.2049   -1.9120    0.7033 C   0  0  0  0  0  0  0  0  0  0  0  0
    6.1993   -1.1119    0.1196 C   0  0  0  0  0  0  0  0  0  0  0  0
    5.8232   -0.0023   -0.6562 C   0  0  0  0  0  0  0  0  0  0  0  0
    4.4691    0.2963   -0.8537 C   0  0  0  0  0  0  0  0  0  0  0  0
    0.3931    1.4209   -2.0337 H   0  0  0  0  0  0  0  0  0  0  0  0
   -0.2981    3.7811   -1.5937 H   0  0  0  0  0  0  0  0  0  0  0  0
    0.5771    4.9914    0.4284 H   0  0  0  0  0  0  0  0  0  0  0  0
    2.1788    3.8206    1.9697 H   0  0  0  0  0  0  0  0  0  0  0  0
    2.8552    1.4616    1.5211 H   0  0  0  0  0  0  0  0  0  0  0  0
    3.0778   -2.2233    0.9973 H   0  0  0  0  0  0  0  0  0  0  0  0
    5.4862   -2.7724    1.3301 H   0  0  0  0  0  0  0  0  0  0  0  0
    7.2633   -1.3454    0.2763 H   0  0  0  0  0  0  0  0  0  0  0  0
    6.5945    0.6357   -1.1149 H   0  0  0  0  0  0  0  0  0  0  0  0
    4.1806    1.1674   -1.4615 H   0  0  0  0  0  0  0  0  0  0  0  0
    0.8226   -2.7692   -2.1612 H   0  0  0  0  0  0  0  0  0  0  0  0
    0.9875   -3.2351   -0.4534 H   0  0  0  0  0  0  0  0  0  0  0  0
    2.4481   -2.7242   -1.3773 H   0  0  0  0  0  0  0  0  0  0  0  0
  1  3  1  0  0  0  0
  2 11  1  0  0  0  0
  2  5  1  0  0  0  0
  3  2  2  0  0  0  0
  4  3  1  0  0  0  0
  4 28  1  0  0  0  0
  5 10  1  0  0  0  0
  6  7  1  0  0  0  0
  6  5  2  0  0  0  0
  7  8  2  0  0  0  0
  8 19  1  0  0  0  0
  8  9  1  0  0  0  0
  9 20  1  0  0  0  0
 10  9  2  0  0  0  0
 10 21  1  0  0  0  0
 11 12  1  0  0  0  0
 12 13  2  0  0  0  0
 12 22  1  0  0  0  0
 13 23  1  0  0  0  0
 14 24  1  0  0  0  0
 14 13  1  0  0  0  0
 15 14  2  0  0  0  0
 16 15  1  0  0  0  0
 16 11  2  0  0  0  0
 17  6  1  0  0  0  0
 18  7  1  0  0  0  0
 25 15  1  0  0  0  0
 26 16  1  0  0  0  0
 27  4  1  0  0  0  0
 29  4  1  0  0  0  0
M  CHG  1   1  -1
M  END
