1
 OpenBabel05122313063D

 16 16  0  0  0  0  0  0  0  0999 V2000
    1.3764    0.2041    1.6256 O   0  5  0  0  0  0  0  0  0  0  0  0
    6.8250    0.1118    0.4638 O   0  0  0  0  0  0  0  0  0  0  0  0
    2.6549    0.1751    1.2959 C   0  0  0  0  0  0  0  0  0  0  0  0
    3.6619    0.3201    2.3008 C   0  0  0  0  0  0  0  0  0  0  0  0
    3.3276    0.4541    3.3413 H   0  0  0  0  0  0  0  0  0  0  0  0
    5.0221    0.2946    1.9922 C   0  0  0  0  0  0  0  0  0  0  0  0
    5.7846    0.4076    2.7783 H   0  0  0  0  0  0  0  0  0  0  0  0
    5.4609    0.1229    0.6616 C   0  0  0  0  0  0  0  0  0  0  0  0
    4.4976   -0.0226   -0.3528 C   0  0  0  0  0  0  0  0  0  0  0  0
    4.7969   -0.1584   -1.4020 H   0  0  0  0  0  0  0  0  0  0  0  0
    3.1262    0.0037   -0.0378 C   0  0  0  0  0  0  0  0  0  0  0  0
    2.3893   -0.1120   -0.8492 H   0  0  0  0  0  0  0  0  0  0  0  0
    7.2881   -0.0599   -0.8513 C   0  0  0  0  0  0  0  0  0  0  0  0
    8.3944   -0.0429   -0.8079 H   0  0  0  0  0  0  0  0  0  0  0  0
    6.9452    0.7550   -1.5329 H   0  0  0  0  0  0  0  0  0  0  0  0
    6.9631   -1.0323   -1.2931 H   0  0  0  0  0  0  0  0  0  0  0  0
  2  8  1  0  0  0  0
  3  1  1  0  0  0  0
  3  4  1  0  0  0  0
  4  5  1  0  0  0  0
  6  4  2  0  0  0  0
  6  7  1  0  0  0  0
  8  6  1  0  0  0  0
  9 11  1  0  0  0  0
  9  8  2  0  0  0  0
 10  9  1  0  0  0  0
 11  3  2  0  0  0  0
 12 11  1  0  0  0  0
 13 14  1  0  0  0  0
 13  2  1  0  0  0  0
 15 13  1  0  0  0  0
 16 13  1  0  0  0  0
M  CHG  1   1  -1
M  END
