1
 OpenBabel05122313063D

 14 14  0  0  0  0  0  0  0  0999 V2000
   -1.2155   -1.3008   -1.0922 O   0  5  0  0  0  0  0  0  0  0  0  0
   -2.9060   -2.7690   -1.6270 C   0  0  0  0  0  0  0  0  0  0  0  0
   -2.2388   -2.9689   -2.4821 H   0  0  0  0  0  0  0  0  0  0  0  0
   -2.3060   -0.5643    1.2715 O   0  0  0  0  0  0  0  0  0  0  0  0
   -2.9891   -1.3254    0.5395 C   0  0  0  0  0  0  0  0  0  0  0  0
   -2.3755   -1.7887   -0.7566 C   0  0  0  0  0  0  0  0  0  0  0  0
   -4.3082   -1.7293    0.9695 C   0  0  0  0  0  0  0  0  0  0  0  0
   -4.5812   -1.2206    1.9090 H   0  0  0  0  0  0  0  0  0  0  0  0
   -4.1056   -3.5014   -1.5980 C   0  0  0  0  0  0  0  0  0  0  0  0
   -4.2295   -4.2062   -2.4377 H   0  0  0  0  0  0  0  0  0  0  0  0
   -5.1603   -3.4525   -0.6862 C   0  0  0  0  0  0  0  0  0  0  0  0
   -6.0202   -4.1126   -0.8799 H   0  0  0  0  0  0  0  0  0  0  0  0
   -5.2319   -2.6337    0.4620 C   0  0  0  0  0  0  0  0  0  0  0  0
   -6.1570   -2.7328    1.0556 H   0  0  0  0  0  0  0  0  0  0  0  0
  1  6  1  0  0  0  0
  2  9  1  0  0  0  0
  2  6  2  0  0  0  0
  3  2  1  0  0  0  0
  5  7  1  0  0  0  0
  5  4  2  0  0  0  0
  6  5  1  0  0  0  0
  7  8  1  0  0  0  0
  9 11  2  0  0  0  0
 10  9  1  0  0  0  0
 11 13  1  0  0  0  0
 12 11  1  0  0  0  0
 13  7  2  0  0  0  0
 13 14  1  0  0  0  0
M  CHG  1   1  -1
M  END
