2
 OpenBabel05122313063D

 40 42  0  0  0  0  0  0  0  0999 V2000
   -1.8596    1.6686    1.6861 O   0  5  0  0  0  0  0  0  0  0  0  0
   -0.7182   -0.2449    1.3193 O   0  0  0  0  0  0  0  0  0  0  0  0
    5.4468    1.7039   -0.0792 O   0  0  0  0  0  0  0  0  0  0  0  0
    0.1961    5.7853   -0.3642 O   0  0  0  0  0  0  0  0  0  0  0  0
    3.4664    1.5512    1.0808 N   0  0  0  0  0  0  0  0  0  0  0  0
   -0.9066    0.9132    1.9141 C   0  0  0  0  0  0  0  0  0  0  0  0
    0.2135    1.3082    2.8919 C   0  0  0  0  0  0  0  0  0  0  0  0
    1.4330    1.6677    2.1012 C   0  0  0  0  0  0  0  0  0  0  0  0
    2.6147    0.9505    2.0418 C   0  0  0  0  0  0  0  0  0  0  0  0
    4.5890    0.9906    0.4284 C   0  0  0  0  0  0  0  0  0  0  0  0
    4.6146   -0.4986    0.2579 C   0  0  0  0  0  0  0  0  0  0  0  0
    3.4428   -1.2844    0.2289 C   0  0  0  0  0  0  0  0  0  0  0  0
    3.5133   -2.6580   -0.0277 C   0  0  0  0  0  0  0  0  0  0  0  0
    4.7600   -3.2512   -0.2941 C   0  0  0  0  0  0  0  0  0  0  0  0
    5.9367   -2.4807   -0.2945 C   0  0  0  0  0  0  0  0  0  0  0  0
    5.8547   -1.1110   -0.0227 C   0  0  0  0  0  0  0  0  0  0  0  0
    3.0581   -0.1451    2.9645 C   0  0  0  0  0  0  0  0  0  0  0  0
    1.5480    2.7941    1.1973 C   0  0  0  0  0  0  0  0  0  0  0  0
    2.8415    2.7262    0.6039 C   0  0  0  0  0  0  0  0  0  0  0  0
    3.2847    3.6986   -0.2987 C   0  0  0  0  0  0  0  0  0  0  0  0
    2.4076    4.7505   -0.6176 C   0  0  0  0  0  0  0  0  0  0  0  0
    1.1109    4.8200   -0.0483 C   0  0  0  0  0  0  0  0  0  0  0  0
    0.6751    3.8426    0.8673 C   0  0  0  0  0  0  0  0  0  0  0  0
    0.6096    6.8714   -1.1747 C   0  0  0  0  0  0  0  0  0  0  0  0
   -0.1630    2.1638    3.4860 H   0  0  0  0  0  0  0  0  0  0  0  0
    0.4261    0.4606    3.5719 H   0  0  0  0  0  0  0  0  0  0  0  0
   -0.3401    3.9004    1.2841 H   0  0  0  0  0  0  0  0  0  0  0  0
    2.7540    5.5289   -1.3099 H   0  0  0  0  0  0  0  0  0  0  0  0
    4.2963    3.6525   -0.7201 H   0  0  0  0  0  0  0  0  0  0  0  0
    1.4636    7.4229   -0.7230 H   0  0  0  0  0  0  0  0  0  0  0  0
   -0.2579    7.5526   -1.2513 H   0  0  0  0  0  0  0  0  0  0  0  0
    0.9001    6.5441   -2.1990 H   0  0  0  0  0  0  0  0  0  0  0  0
    2.4626   -0.8225    0.4194 H   0  0  0  0  0  0  0  0  0  0  0  0
    2.6109   -3.2837    0.0014 H   0  0  0  0  0  0  0  0  0  0  0  0
    6.9027   -2.9589   -0.5084 H   0  0  0  0  0  0  0  0  0  0  0  0
    6.7576   -0.4829   -0.0339 H   0  0  0  0  0  0  0  0  0  0  0  0
    2.7807    0.1169    4.0053 H   0  0  0  0  0  0  0  0  0  0  0  0
    4.1535   -0.2889    2.9370 H   0  0  0  0  0  0  0  0  0  0  0  0
    2.5925   -1.1253    2.7362 H   0  0  0  0  0  0  0  0  0  0  0  0
    4.8292   -4.9542   -0.6398 Cl  0  0  0  0  0  0  0  0  0  0  0  0
  1  6  1  0  0  0  0
  2  6  2  0  0  0  0
  3 10  2  0  0  0  0
  4 22  1  0  0  0  0
  5  9  1  0  0  0  0
  6  7  1  0  0  0  0
  7 25  1  0  0  0  0
  7 26  1  0  0  0  0
  8  7  1  0  0  0  0
  9  8  2  0  0  0  0
  9 17  1  0  0  0  0
 10  5  1  0  0  0  0
 11 10  1  0  0  0  0
 12 11  1  0  0  0  0
 12 33  1  0  0  0  0
 13 34  1  0  0  0  0
 13 12  2  0  0  0  0
 14 13  1  0  0  0  0
 15 14  2  0  0  0  0
 15 16  1  0  0  0  0
 16 11  2  0  0  0  0
 17 37  1  0  0  0  0
 18  8  1  0  0  0  0
 19  5  1  0  0  0  0
 19 18  2  0  0  0  0
 20 19  1  0  0  0  0
 21 20  2  0  0  0  0
 21 22  1  0  0  0  0
 22 23  2  0  0  0  0
 23 18  1  0  0  0  0
 23 27  1  0  0  0  0
 24 30  1  0  0  0  0
 24  4  1  0  0  0  0
 28 21  1  0  0  0  0
 29 20  1  0  0  0  0
 31 24  1  0  0  0  0
 32 24  1  0  0  0  0
 35 15  1  0  0  0  0
 36 16  1  0  0  0  0
 38 17  1  0  0  0  0
 39 17  1  0  0  0  0
 40 14  1  0  0  0  0
M  CHG  1   1  -1
M  END
