2
 OpenBabel05122313063D

 15 15  0  0  0  0  0  0  0  0999 V2000
   -2.3996    2.2317    1.0997 S   0  0  0  0  0  0  0  0  0  0  0  0
   -0.9734    0.4978   -2.6187 O   0  5  0  0  0  0  0  0  0  0  0  0
   -1.5895    0.9758   -1.5517 N   0  0  0  0  0  0  0  0  0  0  0  0
   -2.8538    0.8008   -1.2790 C   0  0  0  0  0  0  0  0  0  0  0  0
   -3.7411    0.0470   -2.2285 C   0  0  0  0  0  0  0  0  0  0  0  0
   -3.1843   -0.1924   -3.1516 H   0  0  0  0  0  0  0  0  0  0  0  0
   -4.6448    0.6346   -2.4849 H   0  0  0  0  0  0  0  0  0  0  0  0
   -4.0734   -0.9029   -1.7607 H   0  0  0  0  0  0  0  0  0  0  0  0
   -3.3792    1.3115   -0.0250 C   0  0  0  0  0  0  0  0  0  0  0  0
   -3.7217    2.3768    2.2050 C   0  0  0  0  0  0  0  0  0  0  0  0
   -3.5822    2.9254    3.1448 H   0  0  0  0  0  0  0  0  0  0  0  0
   -4.8652    1.7481    1.7437 C   0  0  0  0  0  0  0  0  0  0  0  0
   -5.8114    1.7247    2.3011 H   0  0  0  0  0  0  0  0  0  0  0  0
   -4.6728    1.1436    0.4701 C   0  0  0  0  0  0  0  0  0  0  0  0
   -5.4519    0.5921   -0.0723 H   0  0  0  0  0  0  0  0  0  0  0  0
  1 10  1  0  0  0  0
  2  3  1  0  0  0  0
  3  4  2  0  0  0  0
  4  9  1  0  0  0  0
  5  8  1  0  0  0  0
  5  4  1  0  0  0  0
  6  5  1  0  0  0  0
  7  5  1  0  0  0  0
  9 14  2  0  0  0  0
  9  1  1  0  0  0  0
 10 11  1  0  0  0  0
 12 10  2  0  0  0  0
 12 13  1  0  0  0  0
 14 12  1  0  0  0  0
 15 14  1  0  0  0  0
M  CHG  1   2  -1
M  END
