2
 OpenBabel05122313063D

 29 30  0  0  1  0  0  0  0  0999 V2000
    5.0173   -2.6642    0.7918 S   0  0  0  0  0  0  0  0  0  0  0  0
    1.8238    0.9631   -0.4394 O   0  5  0  0  0  0  0  0  0  0  0  0
    2.4657    0.8562    1.7279 O   0  0  0  0  0  0  0  0  0  0  0  0
    7.3919   -1.5375    0.8507 O   0  5  0  0  0  0  0  0  0  0  0  0
    8.2514   -0.8534   -1.1548 O   0  0  0  0  0  0  0  0  0  0  0  0
    5.9765    2.6551   -0.1014 N   0  0  0  0  0  0  0  0  0  0  0  0
    6.3319    3.6167   -0.1423 H   0  0  0  0  0  0  0  0  0  0  0  0
    4.6375    2.4860    0.0825 C   0  0  1  0  0  3  0  0  0  0  0  0
    4.1500    1.1768    0.1098 C   0  0  0  0  0  0  0  0  0  0  0  0
    5.0350    0.0706   -0.0504 C   0  0  0  0  0  0  0  0  0  0  0  0
    6.4337    0.3158   -0.1594 C   0  0  0  0  0  0  0  0  0  0  0  0
    6.8855    1.6473   -0.2204 C   0  0  0  0  0  0  0  0  0  0  0  0
    3.7759    3.6951    0.2850 C   0  0  0  0  0  0  0  0  0  0  0  0
    3.3630    3.7021    1.3150 H   0  0  0  0  0  0  0  0  0  0  0  0
    2.9134    3.6753   -0.4100 H   0  0  0  0  0  0  0  0  0  0  0  0
    4.3354    4.6377    0.1274 H   0  0  0  0  0  0  0  0  0  0  0  0
    2.6931    0.9828    0.4849 C   0  0  0  0  0  0  0  0  0  0  0  0
    4.4540   -1.2769   -0.1247 C   0  0  0  0  0  0  0  0  0  0  0  0
    3.7287   -3.6357    0.1759 C   0  0  0  0  0  0  0  0  0  0  0  0
    3.6524   -4.6855    0.4890 H   0  0  0  0  0  0  0  0  0  0  0  0
    2.9360   -2.9677   -0.7516 C   0  0  0  0  0  0  0  0  0  0  0  0
    2.1137   -3.4232   -1.3211 H   0  0  0  0  0  0  0  0  0  0  0  0
    3.3472   -1.6156   -0.9070 C   0  0  0  0  0  0  0  0  0  0  0  0
    2.8618   -0.8962   -1.5750 H   0  0  0  0  0  0  0  0  0  0  0  0
    7.4735   -0.8200   -0.1817 C   0  0  0  0  0  0  0  0  0  0  0  0
    8.3174    2.0107   -0.4418 C   0  0  0  0  0  0  0  0  0  0  0  0
    8.4483    3.0819   -0.6930 H   0  0  0  0  0  0  0  0  0  0  0  0
    8.7134    1.3511   -1.2412 H   0  0  0  0  0  0  0  0  0  0  0  0
    8.9168    1.7772    0.4632 H   0  0  0  0  0  0  0  0  0  0  0  0
  2 17  1  0  0  0  0
  5 25  2  0  0  0  0
  6  8  1  0  0  0  0
  7  6  1  0  0  0  0
  8  9  1  0  0  0  0
  8 13  1  1  0  0  0
  9 17  1  0  0  0  0
 10  9  2  0  0  0  0
 11 10  1  0  0  0  0
 12 11  2  0  0  0  0
 12  6  1  0  0  0  0
 13 14  1  0  0  0  0
 15 13  1  0  0  0  0
 16 13  1  0  0  0  0
 17  3  2  0  0  0  0
 18 10  1  0  0  0  0
 18  1  1  0  0  0  0
 19 20  1  0  0  0  0
 19  1  1  0  0  0  0
 21 19  2  0  0  0  0
 22 21  1  0  0  0  0
 23 21  1  0  0  0  0
 23 18  2  0  0  0  0
 24 23  1  0  0  0  0
 25 11  1  0  0  0  0
 25  4  1  0  0  0  0
 26 12  1  0  0  0  0
 26 29  1  0  0  0  0
 27 26  1  0  0  0  0
 28 26  1  0  0  0  0
M  CHG  2   2  -1   4  -1
M  END
