5
 OpenBabel05122313063D

 40 42  0  0  1  0  0  0  0  0999 V2000
   -1.0140    2.4819    0.0060 N   0  0  0  0  0  0  0  0  0  0  0  0
   -0.5900    1.6261    0.4709 H   0  0  0  0  0  0  0  0  0  0  0  0
   -0.3453    3.6593    0.1568 C   0  0  0  0  0  0  0  0  0  0  0  0
    1.0316    3.6008    0.6097 C   0  0  0  0  0  0  0  0  0  0  0  0
    1.6152    2.4559    0.7974 O   0  5  0  0  0  0  0  0  0  0  0  0
    1.6551    4.8592    0.7927 C   0  0  0  0  0  0  0  0  0  0  0  0
    2.6933    4.8697    1.1559 H   0  0  0  0  0  0  0  0  0  0  0  0
    0.9895    6.0705    0.5079 C   0  0  0  0  0  0  0  0  0  0  0  0
    1.5313    7.0168    0.6631 H   0  0  0  0  0  0  0  0  0  0  0  0
   -0.3208    6.1066    0.0260 C   0  0  0  0  0  3  0  0  0  0  0  0
   -0.8185    7.0582   -0.2095 H   0  0  0  0  0  0  0  0  0  0  0  0
   -1.0148    4.8850   -0.1613 C   0  0  0  0  0  0  0  0  0  0  0  0
   -2.3558    4.7726   -0.6544 C   0  0  0  0  0  0  0  0  0  0  0  0
   -2.9009    5.6971   -0.9029 H   0  0  0  0  0  0  0  0  0  0  0  0
   -2.9605    3.5442   -0.8474 C   0  0  0  0  0  0  0  0  0  0  0  0
   -3.9728    3.4441   -1.2602 H   0  0  0  0  0  0  0  0  0  0  0  0
   -2.2513    2.3511   -0.5167 C   0  0  0  0  0  0  0  0  0  0  0  0
   -2.7011    0.9977   -0.7181 C   0  0  0  0  0  0  0  0  0  0  0  0
   -1.9141    0.2234   -0.6757 H   0  0  0  0  0  0  0  0  0  0  0  0
   -3.9635    0.7249   -0.9593 N   0  0  0  0  0  0  0  0  0  0  0  0
   -4.3128   -0.5197   -1.1655 N   0  0  0  0  0  0  0  0  0  0  0  0
   -3.4115   -1.6811   -1.2008 C   0  0  0  0  0  0  0  0  0  0  0  0
   -2.7764   -1.7108   -0.2918 H   0  0  0  0  0  0  0  0  0  0  0  0
   -2.7277   -1.5924   -2.0761 H   0  0  0  0  0  0  0  0  0  0  0  0
   -4.3725   -2.8730   -1.2857 C   0  0  0  0  0  0  0  0  0  0  0  0
   -4.5748   -3.2542   -0.2640 H   0  0  0  0  0  0  0  0  0  0  0  0
   -3.9484   -3.7120   -1.8692 H   0  0  0  0  0  0  0  0  0  0  0  0
   -5.6536   -2.2906   -1.9142 C   0  0  0  0  0  0  0  0  0  0  0  0
   -6.5684   -2.8634   -1.6682 H   0  0  0  0  0  0  0  0  0  0  0  0
   -5.5614   -2.2503   -3.0190 H   0  0  0  0  0  0  0  0  0  0  0  0
   -5.7235   -0.8681   -1.3436 C   0  0  1  0  0  0  0  0  0  0  0  0
   -6.1809   -0.1470   -2.0525 H   0  0  0  0  0  0  0  0  0  0  0  0
   -6.4612   -0.7919    0.0139 C   0  0  0  0  0  0  0  0  0  0  0  0
   -5.9684   -1.4820    0.7311 H   0  0  0  0  0  0  0  0  0  0  0  0
   -6.3488    0.2453    0.4129 H   0  0  0  0  0  0  0  0  0  0  0  0
   -7.8138   -1.1824   -0.0607 O   0  0  0  0  0  0  0  0  0  0  0  0
   -8.6703   -0.2084   -0.6169 C   0  0  0  0  0  0  0  0  0  0  0  0
   -8.6018    0.7633   -0.0708 H   0  0  0  0  0  0  0  0  0  0  0  0
   -9.7062   -0.5901   -0.5302 H   0  0  0  0  0  0  0  0  0  0  0  0
   -8.4655   -0.0076   -1.6955 H   0  0  0  0  0  0  0  0  0  0  0  0
  1  3  1  0  0  0  0
  1  2  1  0  0  0  0
  3  4  2  0  0  0  0
  4  6  1  0  0  0  0
  4  5  1  0  0  0  0
  6  7  1  0  0  0  0
  8  9  1  0  0  0  0
  8  6  2  0  0  0  0
 10  8  1  0  0  0  0
 11 10  1  0  0  0  0
 12 10  1  0  0  0  0
 12  3  1  0  0  0  0
 13 12  2  0  0  0  0
 14 13  1  0  0  0  0
 15 13  1  0  0  0  0
 15 17  2  0  0  0  0
 16 15  1  0  0  0  0
 17  1  1  0  0  0  0
 18 19  1  0  0  0  0
 18 17  1  0  0  0  0
 20 18  2  0  0  0  0
 21 20  1  0  0  0  0
 22 21  1  0  0  0  0
 22 23  1  0  0  0  0
 24 22  1  0  0  0  0
 25 22  1  0  0  0  0
 25 26  1  0  0  0  0
 27 25  1  0  0  0  0
 28 29  1  0  0  0  0
 28 31  1  0  0  0  0
 28 25  1  0  0  0  0
 30 28  1  0  0  0  0
 31 32  1  6  0  0  0
 31 21  1  0  0  0  0
 31 33  1  0  0  0  0
 33 35  1  0  0  0  0
 33 34  1  0  0  0  0
 36 33  1  0  0  0  0
 37 39  1  0  0  0  0
 37 38  1  0  0  0  0
 37 36  1  0  0  0  0
 40 37  1  0  0  0  0
M  CHG  1   5  -1
M  END
