1
 OpenBabel05122313063D

 12 12  0  0  0  0  0  0  0  0999 V2000
   -0.0034    0.2447    1.4979 O   0  5  0  0  0  0  0  0  0  0  0  0
   -2.0140    3.5661    2.7703 N   0  0  0  0  0  0  0  0  0  0  0  0
   -1.5725    2.6456    3.6837 C   0  0  0  0  0  3  0  0  0  0  0  0
   -1.8000    2.8604    4.7376 H   0  0  0  0  0  0  0  0  0  0  0  0
   -0.8893    1.5270    3.2771 C   0  0  0  0  0  0  0  0  0  0  0  0
   -0.5391    0.7889    4.0112 H   0  0  0  0  0  0  0  0  0  0  0  0
   -0.6208    1.2838    1.8696 C   0  0  0  0  0  0  0  0  0  0  0  0
   -1.1080    2.3051    0.9576 C   0  0  0  0  0  0  0  0  0  0  0  0
   -0.9206    2.1815   -0.1207 H   0  0  0  0  0  0  0  0  0  0  0  0
   -1.7842    3.4013    1.4283 C   0  0  0  0  0  0  0  0  0  0  0  0
   -2.1705    4.1911    0.7684 H   0  0  0  0  0  0  0  0  0  0  0  0
   -2.5211    4.3905    3.0944 H   0  0  0  0  0  0  0  0  0  0  0  0
  1  7  1  0  0  0  0
  2 12  1  0  0  0  0
  2  3  1  0  0  0  0
  3  4  1  0  0  0  0
  5  3  1  0  0  0  0
  5  6  1  0  0  0  0
  7  5  2  0  0  0  0
  8 10  2  0  0  0  0
  8  7  1  0  0  0  0
  9  8  1  0  0  0  0
 10  2  1  0  0  0  0
 11 10  1  0  0  0  0
M  CHG  1   1  -1
M  END
