1
 OpenBabel05122313063D

 19 19  0  0  0  0  0  0  0  0999 V2000
    1.2096   -0.5513    0.0646 O   0  5  0  0  0  0  0  0  0  0  0  0
    1.7380   -2.0592   -1.7564 C   0  0  0  0  0  0  0  0  0  0  0  0
    0.9192   -1.6488   -2.3638 H   0  0  0  0  0  0  0  0  0  0  0  0
    3.0209   -2.0713    0.3259 C   0  0  0  0  0  0  0  0  0  0  0  0
    1.9447   -1.5199   -0.4538 C   0  0  0  0  0  0  0  0  0  0  0  0
    3.8193   -3.0929   -0.2096 C   0  0  0  0  0  0  0  0  0  0  0  0
    4.6444   -3.4895    0.4061 H   0  0  0  0  0  0  0  0  0  0  0  0
    2.5478   -3.0841   -2.2630 C   0  0  0  0  0  0  0  0  0  0  0  0
    2.3526   -3.4726   -3.2757 H   0  0  0  0  0  0  0  0  0  0  0  0
    3.3060   -1.5033    1.7033 C   0  0  0  0  0  0  0  0  0  0  0  0
    2.3721   -1.0294    2.0758 H   0  0  0  0  0  0  0  0  0  0  0  0
    3.5812   -2.3126    2.4119 H   0  0  0  0  0  0  0  0  0  0  0  0
    3.5963   -3.6151   -1.4948 C   0  0  0  0  0  0  0  0  0  0  0  0
    4.2330   -4.4208   -1.8896 H   0  0  0  0  0  0  0  0  0  0  0  0
    5.5271   -0.4954    2.4152 C   0  0  0  0  0  0  0  0  0  0  0  0
    5.7235   -1.3119    3.1309 H   0  0  0  0  0  0  0  0  0  0  0  0
    6.2943    0.2900    2.3289 H   0  0  0  0  0  0  0  0  0  0  0  0
    4.4021   -0.4711    1.6785 C   0  0  0  0  0  0  0  0  0  0  0  0
    4.2571    0.3568    0.9586 H   0  0  0  0  0  0  0  0  0  0  0  0
  2  5  1  0  0  0  0
  3  2  1  0  0  0  0
  4 10  1  0  0  0  0
  5  1  1  0  0  0  0
  5  4  2  0  0  0  0
  6  4  1  0  0  0  0
  6  7  1  0  0  0  0
  8  2  2  0  0  0  0
  8 13  1  0  0  0  0
  9  8  1  0  0  0  0
 10 11  1  0  0  0  0
 10 12  1  0  0  0  0
 13  6  2  0  0  0  0
 14 13  1  0  0  0  0
 15 16  1  0  0  0  0
 17 15  1  0  0  0  0
 18 10  1  0  0  0  0
 18 15  2  0  0  0  0
 19 18  1  0  0  0  0
M  CHG  1   1  -1
M  END
