8
 OpenBabel05122313063D

  9  8  0  0  0  0  0  0  0  0999 V2000
    5.0906   -0.3707   -0.4115 C   0  0  0  0  0  0  0  0  0  0  0  0
    5.6626    0.5713   -0.2322 H   0  0  0  0  0  0  0  0  0  0  0  0
    4.9624   -0.4688   -1.5182 H   0  0  0  0  0  0  0  0  0  0  0  0
    5.8199   -1.5745    0.1670 C   0  0  0  0  0  0  0  0  0  0  0  0
    5.9432   -1.4733    1.2640 H   0  0  0  0  0  0  0  0  0  0  0  0
    6.8261   -1.6654   -0.2882 H   0  0  0  0  0  0  0  0  0  0  0  0
    5.2660   -2.5145   -0.0321 H   0  0  0  0  0  0  0  0  0  0  0  0
    3.1788    0.9194   -0.3363 O   0  0  0  0  0  1  0  0  0  0  0  0
    3.8325   -0.2880    0.2175 O   0  0  0  0  0  0  0  0  0  0  0  0
  1  2  1  0  0  0  0
  1  4  1  0  0  0  0
  1  9  1  0  0  0  0
  3  1  1  0  0  0  0
  4  5  1  0  0  0  0
  6  4  1  0  0  0  0
  7  4  1  0  0  0  0
  8  9  1  0  0  0  0
M  END
