2
 OpenBabel05122313063D

 12 12  0  0  0  0  0  0  0  0999 V2000
    6.0922    1.4898    0.2094 F   0  0  0  0  0  0  0  0  0  0  0  0
    1.2716   -0.9833   -0.7417 O   0  5  0  0  0  0  0  0  0  0  0  0
    2.4458   -0.3557   -0.4803 C   0  0  0  0  0  0  0  0  0  0  0  0
    3.6507   -1.0689   -0.6639 C   0  0  0  0  0  0  0  0  0  0  0  0
    4.8835   -0.4491   -0.4274 C   0  0  0  0  0  0  0  0  0  0  0  0
    4.9069    0.8898   -0.0149 C   0  0  0  0  0  0  0  0  0  0  0  0
    3.7238    1.6190    0.1642 C   0  0  0  0  0  0  0  0  0  0  0  0
    2.4925    0.9956   -0.0695 C   0  0  0  0  0  0  0  0  0  0  0  0
    3.5992   -2.1171   -0.9923 H   0  0  0  0  0  0  0  0  0  0  0  0
    5.8326   -0.9882   -0.5596 H   0  0  0  0  0  0  0  0  0  0  0  0
    3.7813    2.6695    0.4835 H   0  0  0  0  0  0  0  0  0  0  0  0
    1.5519    1.5481    0.0687 H   0  0  0  0  0  0  0  0  0  0  0  0
  2  3  1  0  0  0  0
  3  8  1  0  0  0  0
  4  3  2  0  0  0  0
  4  5  1  0  0  0  0
  5  6  2  0  0  0  0
  6  7  1  0  0  0  0
  6  1  1  0  0  0  0
  7 11  1  0  0  0  0
  8 12  1  0  0  0  0
  8  7  2  0  0  0  0
  9  4  1  0  0  0  0
 10  5  1  0  0  0  0
M  CHG  1   2  -1
M  END
