1
 OpenBabel05122313063D

 28 27  0  0  0  0  0  0  0  0999 V2000
    1.0325   -2.7761   -1.6526 O   0  5  0  0  0  0  0  0  0  0  0  0
    2.0972   -3.1669    0.2636 O   0  0  0  0  0  0  0  0  0  0  0  0
    2.0720   -3.1656   -0.9987 C   0  0  0  0  0  0  0  0  0  0  0  0
    3.2960   -3.5886   -1.7995 C   0  0  0  0  0  0  0  0  0  0  0  0
    4.1589   -3.6159   -1.1056 H   0  0  0  0  0  0  0  0  0  0  0  0
    3.1324   -4.6350   -2.1362 H   0  0  0  0  0  0  0  0  0  0  0  0
    3.5607   -2.6957   -3.0227 C   0  0  0  0  0  0  0  0  0  0  0  0
    2.7782   -2.8962   -3.7828 H   0  0  0  0  0  0  0  0  0  0  0  0
    4.5317   -2.9941   -3.4755 H   0  0  0  0  0  0  0  0  0  0  0  0
    3.5611   -1.1890   -2.7250 C   0  0  0  0  0  0  0  0  0  0  0  0
    3.8092   -0.6375   -3.6588 H   0  0  0  0  0  0  0  0  0  0  0  0
    2.5249   -0.8886   -2.4577 H   0  0  0  0  0  0  0  0  0  0  0  0
    4.5082   -0.7392   -1.6082 C   0  0  0  0  0  0  0  0  0  0  0  0
    5.5523   -1.0467   -1.8446 H   0  0  0  0  0  0  0  0  0  0  0  0
    4.2432   -1.2606   -0.6622 H   0  0  0  0  0  0  0  0  0  0  0  0
    4.4601    0.7716   -1.3666 C   0  0  0  0  0  0  0  0  0  0  0  0
    4.7438    1.3104   -2.2987 H   0  0  0  0  0  0  0  0  0  0  0  0
    3.4073    1.0709   -1.1576 H   0  0  0  0  0  0  0  0  0  0  0  0
    5.3459    1.2431   -0.2125 C   0  0  0  0  0  0  0  0  0  0  0  0
    6.4045    0.9612   -0.3999 H   0  0  0  0  0  0  0  0  0  0  0  0
    5.0452    0.7161    0.7173 H   0  0  0  0  0  0  0  0  0  0  0  0
    5.2605    2.7637    0.0163 C   0  0  0  0  0  0  0  0  0  0  0  0
    5.6923    3.3102   -0.8441 H   0  0  0  0  0  0  0  0  0  0  0  0
    4.1939    3.0563    0.1122 H   0  0  0  0  0  0  0  0  0  0  0  0
    6.0048    3.2052    1.2545 C   0  0  0  0  0  0  0  0  0  0  0  0
    7.0962    3.7355    1.2909 O   0  0  0  0  0  0  0  0  0  0  0  0
    5.3093    2.9049    2.3971 O   0  0  0  0  0  0  0  0  0  0  0  0
    5.8925    3.1927    3.1336 H   0  0  0  0  0  0  0  0  0  0  0  0
  1  3  1  0  0  0  0
  3  2  2  0  0  0  0
  4  5  1  0  0  0  0
  4  3  1  0  0  0  0
  6  4  1  0  0  0  0
  7 10  1  0  0  0  0
  7  4  1  0  0  0  0
  8  7  1  0  0  0  0
  9  7  1  0  0  0  0
 10 12  1  0  0  0  0
 10 13  1  0  0  0  0
 11 10  1  0  0  0  0
 13 16  1  0  0  0  0
 13 15  1  0  0  0  0
 14 13  1  0  0  0  0
 16 18  1  0  0  0  0
 16 19  1  0  0  0  0
 17 16  1  0  0  0  0
 19 22  1  0  0  0  0
 19 21  1  0  0  0  0
 20 19  1  0  0  0  0
 22 24  1  0  0  0  0
 22 25  1  0  0  0  0
 23 22  1  0  0  0  0
 25 26  2  0  0  0  0
 25 27  1  0  0  0  0
 27 28  1  0  0  0  0
M  CHG  1   1  -1
M  END
