4
 OpenBabel05122313063D

 20 20  0  0  1  0  0  0  0  0999 V2000
    0.0883   -0.1197    3.3832 F   0  0  0  0  0  0  0  0  0  0  0  0
    1.9764    0.8462    2.8720 F   0  0  0  0  0  0  0  0  0  0  0  0
    1.9722   -1.1794    3.6753 F   0  0  0  0  0  0  0  0  0  0  0  0
    0.1542   -1.7667    1.2836 O   0  0  0  0  0  1  0  0  0  0  0  0
    1.3081   -0.3502    2.8298 C   0  0  0  0  0  0  0  0  0  0  0  0
    1.1888   -0.9381    1.4273 C   0  0  1  0  0  3  0  0  0  0  0  0
    2.4482   -1.2332    0.6815 C   0  0  0  0  0  0  0  0  0  0  0  0
    3.6614   -0.5246    0.8490 C   0  0  0  0  0  0  0  0  0  0  0  0
    3.7346    0.2696    1.6033 H   0  0  0  0  0  0  0  0  0  0  0  0
    4.7751   -0.8101    0.0515 C   0  0  0  0  0  0  0  0  0  0  0  0
    5.7034   -0.2353    0.2036 H   0  0  0  0  0  0  0  0  0  0  0  0
    4.7378   -1.8083   -0.9449 C   0  0  0  0  0  0  0  0  0  0  0  0
    3.5362   -2.5300   -1.0915 C   0  0  0  0  0  0  0  0  0  0  0  0
    3.4779   -3.3305   -1.8470 H   0  0  0  0  0  0  0  0  0  0  0  0
    2.4195   -2.2563   -0.2935 C   0  0  0  0  0  0  0  0  0  0  0  0
    1.4930   -2.8376   -0.4059 H   0  0  0  0  0  0  0  0  0  0  0  0
    5.9444   -2.0941   -1.8027 C   0  0  0  0  0  0  0  0  0  0  0  0
    5.7314   -2.8744   -2.5592 H   0  0  0  0  0  0  0  0  0  0  0  0
    6.8035   -2.4438   -1.1916 H   0  0  0  0  0  0  0  0  0  0  0  0
    6.2862   -1.1849   -2.3407 H   0  0  0  0  0  0  0  0  0  0  0  0
  5  2  1  0  0  0  0
  5  1  1  0  0  0  0
  5  3  1  0  0  0  0
  6  4  1  1  0  0  0
  6  5  1  0  0  0  0
  7  8  1  0  0  0  0
  7  6  1  0  0  0  0
  8  9  1  0  0  0  0
 10 11  1  0  0  0  0
 10  8  2  0  0  0  0
 12 10  1  0  0  0  0
 13 12  2  0  0  0  0
 13 15  1  0  0  0  0
 14 13  1  0  0  0  0
 15  7  2  0  0  0  0
 16 15  1  0  0  0  0
 17 19  1  0  0  0  0
 17 12  1  0  0  0  0
 18 17  1  0  0  0  0
 20 17  1  0  0  0  0
M  END
