1
 OpenBabel05122313063D

 51 52  0  0  0  0  0  0  0  0999 V2000
    0.3652   -0.2860    0.1979 O   0  0  0  0  0  1  0  0  0  0  0  0
   -1.9325   -0.7839   -1.0519 P   0  0  0  0  0  0  0  0  0  0  0  0
   -0.8665    0.3824    0.1666 C   0  0  0  0  0  0  0  0  0  0  0  0
   -2.3654   -2.3644   -0.0182 C   0  0  0  0  0  0  0  0  0  0  0  0
   -1.0178   -3.0367    0.3097 C   0  0  0  0  0  0  0  0  0  0  0  0
   -1.2132   -4.0280    0.7734 H   0  0  0  0  0  0  0  0  0  0  0  0
   -0.4103   -2.4394    1.0119 H   0  0  0  0  0  0  0  0  0  0  0  0
   -0.4165   -3.1993   -0.6058 H   0  0  0  0  0  0  0  0  0  0  0  0
   -3.1224   -3.3026   -0.9815 C   0  0  0  0  0  0  0  0  0  0  0  0
   -3.1911   -4.3117   -0.5206 H   0  0  0  0  0  0  0  0  0  0  0  0
   -2.5948   -3.4099   -1.9515 H   0  0  0  0  0  0  0  0  0  0  0  0
   -4.1574   -2.9654   -1.1824 H   0  0  0  0  0  0  0  0  0  0  0  0
   -3.1676   -2.2240    1.2873 C   0  0  0  0  0  0  0  0  0  0  0  0
   -4.1485   -1.7403    1.1452 H   0  0  0  0  0  0  0  0  0  0  0  0
   -2.6167   -1.6614    2.0602 H   0  0  0  0  0  0  0  0  0  0  0  0
   -3.3567   -3.2420    1.6939 H   0  0  0  0  0  0  0  0  0  0  0  0
   -3.6143    0.0386   -1.6119 C   0  0  0  0  0  0  0  0  0  0  0  0
   -3.8917   -0.6203   -2.9844 C   0  0  0  0  0  0  0  0  0  0  0  0
   -4.8017   -0.1652   -3.4333 H   0  0  0  0  0  0  0  0  0  0  0  0
   -4.0662   -1.7097   -2.9096 H   0  0  0  0  0  0  0  0  0  0  0  0
   -3.0464   -0.4610   -3.6831 H   0  0  0  0  0  0  0  0  0  0  0  0
   -4.8443   -0.1518   -0.7109 C   0  0  0  0  0  0  0  0  0  0  0  0
   -4.6991    0.2585    0.3058 H   0  0  0  0  0  0  0  0  0  0  0  0
   -5.1341   -1.2146   -0.6121 H   0  0  0  0  0  0  0  0  0  0  0  0
   -5.7101    0.3785   -1.1654 H   0  0  0  0  0  0  0  0  0  0  0  0
   -3.4273    1.5431   -1.8785 C   0  0  0  0  0  0  0  0  0  0  0  0
   -4.3510    1.9313   -2.3600 H   0  0  0  0  0  0  0  0  0  0  0  0
   -2.5816    1.7491   -2.5607 H   0  0  0  0  0  0  0  0  0  0  0  0
   -3.2585    2.1340   -0.9589 H   0  0  0  0  0  0  0  0  0  0  0  0
   -1.4399    0.5194    1.5696 C   0  0  0  0  0  0  0  0  0  0  0  0
   -0.7633   -0.0344    2.6749 C   0  0  0  0  0  0  0  0  0  0  0  0
    0.1894   -0.5523    2.5064 H   0  0  0  0  0  0  0  0  0  0  0  0
   -1.3023    0.0495    3.9689 C   0  0  0  0  0  0  0  0  0  0  0  0
   -0.7576   -0.4027    4.8120 H   0  0  0  0  0  0  0  0  0  0  0  0
   -2.5262    0.6977    4.1877 C   0  0  0  0  0  0  0  0  0  0  0  0
   -2.9521    0.7602    5.2004 H   0  0  0  0  0  0  0  0  0  0  0  0
   -3.2015    1.2703    3.0964 C   0  0  0  0  0  0  0  0  0  0  0  0
   -4.1605    1.7887    3.2501 H   0  0  0  0  0  0  0  0  0  0  0  0
   -2.6634    1.1819    1.8064 C   0  0  0  0  0  0  0  0  0  0  0  0
   -3.2078    1.6304    0.9646 H   0  0  0  0  0  0  0  0  0  0  0  0
   -0.6186    1.7279   -0.5357 C   0  0  0  0  0  0  0  0  0  0  0  0
   -0.1101    1.7049   -1.8536 C   0  0  0  0  0  0  0  0  0  0  0  0
   -0.0000    0.7350   -2.3592 H   0  0  0  0  0  0  0  0  0  0  0  0
    0.2367    2.8889   -2.5165 C   0  0  0  0  0  0  0  0  0  0  0  0
    0.6221    2.8452   -3.5469 H   0  0  0  0  0  0  0  0  0  0  0  0
    0.0954    4.1281   -1.8679 C   0  0  0  0  0  0  0  0  0  0  0  0
    0.3705    5.0607   -2.3832 H   0  0  0  0  0  0  0  0  0  0  0  0
   -0.3910    4.1622   -0.5527 C   0  0  0  0  0  0  0  0  0  0  0  0
   -0.4900    5.1237   -0.0262 H   0  0  0  0  0  0  0  0  0  0  0  0
   -0.7425    2.9726    0.1085 C   0  0  0  0  0  0  0  0  0  0  0  0
   -1.1039    3.0190    1.1451 H   0  0  0  0  0  0  0  0  0  0  0  0
  2  4  1  0  0  0  0
  2  3  1  0  0  0  0
  3  1  1  0  0  0  0
  3 30  1  0  0  0  0
  4  5  1  0  0  0  0
  4 13  1  0  0  0  0
  5  6  1  0  0  0  0
  5  7  1  0  0  0  0
  8  5  1  0  0  0  0
  9 10  1  0  0  0  0
  9  4  1  0  0  0  0
 11  9  1  0  0  0  0
 12  9  1  0  0  0  0
 13 16  1  0  0  0  0
 13 15  1  0  0  0  0
 14 13  1  0  0  0  0
 17  2  1  0  0  0  0
 17 22  1  0  0  0  0
 18 20  1  0  0  0  0
 18 17  1  0  0  0  0
 19 18  1  0  0  0  0
 21 18  1  0  0  0  0
 22 24  1  0  0  0  0
 22 23  1  0  0  0  0
 25 22  1  0  0  0  0
 26 17  1  0  0  0  0
 26 29  1  0  0  0  0
 27 26  1  0  0  0  0
 28 26  1  0  0  0  0
 30 39  2  0  0  0  0
 30 31  1  0  0  0  0
 31 33  2  0  0  0  0
 32 31  1  0  0  0  0
 33 35  1  0  0  0  0
 33 34  1  0  0  0  0
 35 36  1  0  0  0  0
 37 38  1  0  0  0  0
 37 35  2  0  0  0  0
 39 37  1  0  0  0  0
 40 39  1  0  0  0  0
 41 50  1  0  0  0  0
 41  3  1  0  0  0  0
 42 41  2  0  0  0  0
 43 42  1  0  0  0  0
 44 46  2  0  0  0  0
 44 42  1  0  0  0  0
 45 44  1  0  0  0  0
 46 48  1  0  0  0  0
 47 46  1  0  0  0  0
 48 49  1  0  0  0  0
 48 50  2  0  0  0  0
 50 51  1  0  0  0  0
M  END
