1
 OpenBabel05122313063D

 16 15  0  0  0  0  0  0  0  0999 V2000
   -0.4756   -0.9616   -0.7782 O   0  5  0  0  0  0  0  0  0  0  0  0
   -1.6796   -1.1453    1.1501 O   0  0  0  0  0  0  0  0  0  0  0  0
   -5.4277   -0.0629    0.7180 O   0  0  0  0  0  0  0  0  0  0  0  0
   -3.7335    0.5891   -0.6357 O   0  0  0  0  0  0  0  0  0  0  0  0
   -1.5169   -1.2926   -0.0836 C   0  0  0  0  0  0  0  0  0  0  0  0
   -2.6360   -1.9014   -0.9214 C   0  0  0  0  0  0  0  0  0  0  0  0
   -2.3879   -2.9745   -1.0652 H   0  0  0  0  0  0  0  0  0  0  0  0
   -2.6157   -1.4401   -1.9268 H   0  0  0  0  0  0  0  0  0  0  0  0
   -3.9970   -1.7674   -0.2474 C   0  0  0  0  0  0  0  0  0  0  0  0
   -4.7858   -2.2585   -0.8560 H   0  0  0  0  0  0  0  0  0  0  0  0
   -3.9995   -2.2769    0.7359 H   0  0  0  0  0  0  0  0  0  0  0  0
   -4.4770   -0.3543    0.0223 C   0  0  0  0  0  0  0  0  0  0  0  0
   -4.1731    1.9375   -0.4401 C   0  0  0  0  0  0  0  0  0  0  0  0
   -3.5104    2.5713   -1.0565 H   0  0  0  0  0  0  0  0  0  0  0  0
   -4.1024    2.2256    0.6288 H   0  0  0  0  0  0  0  0  0  0  0  0
   -5.2282    2.0599   -0.7568 H   0  0  0  0  0  0  0  0  0  0  0  0
  1  5  1  0  0  0  0
  4 13  1  0  0  0  0
  4 12  1  0  0  0  0
  5  2  2  0  0  0  0
  6  9  1  0  0  0  0
  6  5  1  0  0  0  0
  7  6  1  0  0  0  0
  8  6  1  0  0  0  0
  9 12  1  0  0  0  0
  9 11  1  0  0  0  0
 10  9  1  0  0  0  0
 12  3  2  0  0  0  0
 13 15  1  0  0  0  0
 14 13  1  0  0  0  0
 16 13  1  0  0  0  0
M  CHG  1   1  -1
M  END
