2
 OpenBabel05122313063D

 41 40  0  0  0  0  0  0  0  0999 V2000
   -2.0552   -0.0032    0.0446 P   0  0  0  0  0  4  0  0  0  0  0  0
   -0.4991   -0.0578    0.1790 O   0  0  0  0  0  1  0  0  0  0  0  0
   -2.7155   -1.0856    1.4787 C   0  0  0  0  0  0  0  0  0  0  0  0
   -1.8223   -2.3455    1.5436 C   0  0  0  0  0  0  0  0  0  0  0  0
   -2.0826   -2.9063    2.4651 H   0  0  0  0  0  0  0  0  0  0  0  0
   -0.7508   -2.0760    1.5915 H   0  0  0  0  0  0  0  0  0  0  0  0
   -1.9618   -3.0244    0.6867 H   0  0  0  0  0  0  0  0  0  0  0  0
   -2.5354   -0.3475    2.8209 C   0  0  0  0  0  0  0  0  0  0  0  0
   -3.1993    0.5296    2.9308 H   0  0  0  0  0  0  0  0  0  0  0  0
   -1.4885   -0.0296    2.9756 H   0  0  0  0  0  0  0  0  0  0  0  0
   -2.7919   -1.0554    3.6363 H   0  0  0  0  0  0  0  0  0  0  0  0
   -4.1938   -1.4804    1.3166 C   0  0  0  0  0  0  0  0  0  0  0  0
   -4.4978   -2.0726    2.2051 H   0  0  0  0  0  0  0  0  0  0  0  0
   -4.3716   -2.1145    0.4286 H   0  0  0  0  0  0  0  0  0  0  0  0
   -4.8672   -0.6038    1.2613 H   0  0  0  0  0  0  0  0  0  0  0  0
   -2.5568    1.8307    0.2425 C   0  0  0  0  0  0  0  0  0  0  0  0
   -1.6274    2.4511    1.3083 C   0  0  0  0  0  0  0  0  0  0  0  0
   -1.8692    3.5314    1.3835 H   0  0  0  0  0  0  0  0  0  0  0  0
   -0.5674    2.3624    1.0060 H   0  0  0  0  0  0  0  0  0  0  0  0
   -1.7479    2.0113    2.3124 H   0  0  0  0  0  0  0  0  0  0  0  0
   -4.0339    1.9988    0.6425 C   0  0  0  0  0  0  0  0  0  0  0  0
   -4.2660    1.5640    1.6326 H   0  0  0  0  0  0  0  0  0  0  0  0
   -4.7291    1.5639   -0.1001 H   0  0  0  0  0  0  0  0  0  0  0  0
   -4.2575    3.0844    0.7036 H   0  0  0  0  0  0  0  0  0  0  0  0
   -2.2869    2.6052   -1.0648 C   0  0  0  0  0  0  0  0  0  0  0  0
   -2.9592    2.3120   -1.8917 H   0  0  0  0  0  0  0  0  0  0  0  0
   -1.2326    2.5065   -1.3939 H   0  0  0  0  0  0  0  0  0  0  0  0
   -2.4730    3.6802   -0.8594 H   0  0  0  0  0  0  0  0  0  0  0  0
   -2.5847   -0.7038   -1.6484 C   0  0  0  0  0  0  0  0  0  0  0  0
   -1.6445   -0.1456   -2.7390 C   0  0  0  0  0  0  0  0  0  0  0  0
   -2.0280   -0.5030   -3.7177 H   0  0  0  0  0  0  0  0  0  0  0  0
   -0.6187   -0.5451   -2.6286 H   0  0  0  0  0  0  0  0  0  0  0  0
   -1.5862    0.9526   -2.7795 H   0  0  0  0  0  0  0  0  0  0  0  0
   -2.4008   -2.2359   -1.6680 C   0  0  0  0  0  0  0  0  0  0  0  0
   -3.1185   -2.7741   -1.0213 H   0  0  0  0  0  0  0  0  0  0  0  0
   -1.3626   -2.5231   -1.4094 H   0  0  0  0  0  0  0  0  0  0  0  0
   -2.5799   -2.5778   -2.7086 H   0  0  0  0  0  0  0  0  0  0  0  0
   -4.0489   -0.3481   -1.9714 C   0  0  0  0  0  0  0  0  0  0  0  0
   -4.1995    0.7376   -2.1201 H   0  0  0  0  0  0  0  0  0  0  0  0
   -4.7632   -0.6987   -1.2031 H   0  0  0  0  0  0  0  0  0  0  0  0
   -4.3215   -0.8460   -2.9251 H   0  0  0  0  0  0  0  0  0  0  0  0
  1  2  1  0  0  0  0
  1 16  1  0  0  0  0
  1  3  1  0  0  0  0
  3  4  1  0  0  0  0
  3  8  1  0  0  0  0
  4  6  1  0  0  0  0
  4  5  1  0  0  0  0
  7  4  1  0  0  0  0
  8  9  1  0  0  0  0
  8 10  1  0  0  0  0
  8 11  1  0  0  0  0
 12  3  1  0  0  0  0
 12 13  1  0  0  0  0
 14 12  1  0  0  0  0
 15 12  1  0  0  0  0
 16 21  1  0  0  0  0
 16 17  1  0  0  0  0
 17 18  1  0  0  0  0
 17 20  1  0  0  0  0
 19 17  1  0  0  0  0
 21 24  1  0  0  0  0
 21 22  1  0  0  0  0
 23 21  1  0  0  0  0
 25 28  1  0  0  0  0
 25 16  1  0  0  0  0
 26 25  1  0  0  0  0
 27 25  1  0  0  0  0
 29  1  1  0  0  0  0
 30 32  1  0  0  0  0
 30 29  1  0  0  0  0
 31 30  1  0  0  0  0
 33 30  1  0  0  0  0
 34 29  1  0  0  0  0
 34 36  1  0  0  0  0
 34 35  1  0  0  0  0
 37 34  1  0  0  0  0
 38 29  1  0  0  0  0
 38 40  1  0  0  0  0
 39 38  1  0  0  0  0
 41 38  1  0  0  0  0
M  END
