2
 OpenBabel05122313063D

 36 36  0  0  0  0  0  0  0  0999 V2000
    2.0484   -1.7438   -0.8642 S   0  0  0  0  0  0  0  0  0  0  0  0
    1.8064    1.2464   -0.0367 O   0  0  0  0  0  1  0  0  0  0  0  0
    2.6775    1.0646   -1.0708 C   0  0  0  0  0  0  0  0  0  0  0  0
    3.9075    1.9825   -0.7736 C   0  0  0  0  0  0  0  0  0  0  0  0
    3.5820    3.2859   -0.7974 F   0  0  0  0  0  0  0  0  0  0  0  0
    4.3995    1.7025    0.4581 F   0  0  0  0  0  0  0  0  0  0  0  0
    4.9180    1.7896   -1.6560 F   0  0  0  0  0  0  0  0  0  0  0  0
    2.0259    1.4952   -2.4288 C   0  0  0  0  0  0  0  0  0  0  0  0
    2.9178    1.5546   -3.4457 F   0  0  0  0  0  0  0  0  0  0  0  0
    1.4124    2.6852   -2.3384 F   0  0  0  0  0  0  0  0  0  0  0  0
    1.0811    0.5798   -2.7902 F   0  0  0  0  0  0  0  0  0  0  0  0
    3.2418   -0.3978   -1.2370 C   0  0  0  0  0  0  0  0  0  0  0  0
    4.1174   -0.5368   -0.5776 H   0  0  0  0  0  0  0  0  0  0  0  0
    3.5770   -0.5704   -2.2778 H   0  0  0  0  0  0  0  0  0  0  0  0
    0.4800   -3.9964   -0.2546 N   0  0  0  0  0  0  0  0  0  0  0  0
   -0.6022   -3.9676    0.7149 C   0  0  0  0  0  0  0  0  0  0  0  0
   -1.4557   -3.3896    0.3146 H   0  0  0  0  0  0  0  0  0  0  0  0
   -0.2617   -3.4561    1.6373 H   0  0  0  0  0  0  0  0  0  0  0  0
   -0.9494   -4.9951    1.0027 H   0  0  0  0  0  0  0  0  0  0  0  0
    0.1029   -4.5972   -1.5187 C   0  0  0  0  0  0  0  0  0  0  0  0
   -0.1303   -5.6914   -1.4376 H   0  0  0  0  0  0  0  0  0  0  0  0
    0.9245   -4.4719   -2.2537 H   0  0  0  0  0  0  0  0  0  0  0  0
   -0.7936   -4.0848   -1.9169 H   0  0  0  0  0  0  0  0  0  0  0  0
    1.7302   -4.4978    0.2949 C   0  0  0  0  0  0  0  0  0  0  0  0
    2.4374   -4.6357   -0.5531 H   0  0  0  0  0  0  0  0  0  0  0  0
    1.6255   -5.4956    0.7973 H   0  0  0  0  0  0  0  0  0  0  0  0
    2.3185   -3.4916    1.2563 C   0  0  0  0  0  0  0  0  0  0  0  0
    2.6613   -3.8324    2.5757 C   0  0  0  0  0  0  0  0  0  0  0  0
    2.5031   -4.8709    2.9073 H   0  0  0  0  0  0  0  0  0  0  0  0
    3.1931   -2.8825    3.4614 C   0  0  0  0  0  0  0  0  0  0  0  0
    3.4575   -3.1728    4.4892 H   0  0  0  0  0  0  0  0  0  0  0  0
    3.3699   -1.5602    3.0286 C   0  0  0  0  0  0  0  0  0  0  0  0
    3.7699   -0.7983    3.7150 H   0  0  0  0  0  0  0  0  0  0  0  0
    3.0193   -1.1889    1.7209 C   0  0  0  0  0  0  0  0  0  0  0  0
    3.1100   -0.1414    1.4004 H   0  0  0  0  0  0  0  0  0  0  0  0
    2.5084   -2.1525    0.8308 C   0  0  0  0  0  0  0  0  0  0  0  0
  1 36  1  0  0  0  0
  3  4  1  0  0  0  0
  3  2  1  0  0  0  0
  4  6  1  0  0  0  0
  5  4  1  0  0  0  0
  7  4  1  0  0  0  0
  8 10  1  0  0  0  0
  8  3  1  0  0  0  0
  9  8  1  0  0  0  0
 11  8  1  0  0  0  0
 12  3  1  0  0  0  0
 12  1  1  0  0  0  0
 12 13  1  0  0  0  0
 14 12  1  0  0  0  0
 15 24  1  0  0  0  0
 15 16  1  0  0  0  0
 16 19  1  0  0  0  0
 16 18  1  0  0  0  0
 17 16  1  0  0  0  0
 20 21  1  0  0  0  0
 20 15  1  0  0  0  0
 22 20  1  0  0  0  0
 23 20  1  0  0  0  0
 24 26  1  0  0  0  0
 24 27  1  0  0  0  0
 25 24  1  0  0  0  0
 27 28  1  0  0  0  0
 28 29  1  0  0  0  0
 28 30  2  0  0  0  0
 30 31  1  0  0  0  0
 32 30  1  0  0  0  0
 32 33  1  0  0  0  0
 34 32  2  0  0  0  0
 35 34  1  0  0  0  0
 36 27  2  0  0  0  0
 36 34  1  0  0  0  0
M  END
