1
 OpenBabel05122313063D

 37 43  0  0  1  0  0  0  0  0999 V2000
   -0.7411    1.2368    0.5555 O   0  0  0  0  0  1  0  0  0  0  0  0
   -2.9175    1.6412    0.2635 N   0  0  0  0  0  0  0  0  0  0  0  0
   -2.0030   -0.6630   -0.1665 C   0  0  1  0  0  0  0  0  0  0  0  0
   -1.8879    0.7806    0.2212 C   0  0  2  0  0  3  0  0  0  0  0  0
   -4.3421    1.4053   -0.0334 C   0  0  0  0  0  0  0  0  0  0  0  0
   -4.6453    0.3962    0.2929 H   0  0  0  0  0  0  0  0  0  0  0  0
   -4.5129    1.4765   -1.1284 H   0  0  0  0  0  0  0  0  0  0  0  0
   -5.0362    2.5464    0.7134 C   0  0  0  0  0  0  0  0  0  0  0  0
   -5.1496    2.2827    1.7861 H   0  0  0  0  0  0  0  0  0  0  0  0
   -6.0438    2.7607    0.3089 H   0  0  0  0  0  0  0  0  0  0  0  0
   -4.0469    3.7086    0.5490 C   0  0  0  0  0  0  0  0  0  0  0  0
   -4.1935    4.5254    1.2814 H   0  0  0  0  0  0  0  0  0  0  0  0
   -4.1439    4.1479   -0.4658 H   0  0  0  0  0  0  0  0  0  0  0  0
   -2.6793    3.0313    0.7022 C   0  0  0  0  0  0  0  0  0  0  0  0
   -1.8752    3.4924    0.0938 H   0  0  0  0  0  0  0  0  0  0  0  0
   -2.3183    3.0227    1.7532 H   0  0  0  0  0  0  0  0  0  0  0  0
   -0.3859   -1.3383   -0.2378 B   0  0  0  0  0  2  0  0  0  0  0  0
   -1.5461   -1.7209    1.0984 B   0  0  2  0  0  0  0  0  0  0  0  0
   -1.4023   -1.2362    2.1961 H   0  0  0  0  0  0  0  0  0  0  0  0
   -3.2075   -1.7260    0.4510 B   0  0  1  0  0  0  0  0  0  0  0  0
   -4.0948   -1.2812    1.1435 H   0  0  0  0  0  0  0  0  0  0  0  0
   -3.1116   -1.3516   -1.2897 B   0  0  0  0  0  0  0  0  0  0  0  0
   -3.9354   -0.6510   -1.8261 H   0  0  0  0  0  0  0  0  0  0  0  0
   -1.3880   -1.1176   -1.7022 B   0  0  2  0  0  0  0  0  0  0  0  0
   -1.1170   -0.2366   -2.4864 H   0  0  0  0  0  0  0  0  0  0  0  0
   -3.3233   -3.0302   -0.7447 B   0  0  1  0  0  0  0  0  0  0  0  0
   -4.3745   -3.6047   -0.9249 H   0  0  0  0  0  0  0  0  0  0  0  0
   -2.1978   -2.6517   -2.0812 B   0  0  1  0  0  0  0  0  0  0  0  0
   -2.4313   -2.9433   -3.2342 H   0  0  0  0  0  0  0  0  0  0  0  0
   -0.5318   -2.6523   -1.4207 B   0  0  2  0  0  0  0  0  0  0  0  0
    0.4112   -2.9932   -2.0978 H   0  0  0  0  0  0  0  0  0  0  0  0
   -0.6213   -3.0152    0.3252 B   0  0  1  0  0  0  0  0  0  0  0  0
    0.2690   -3.5909    0.9203 H   0  0  0  0  0  0  0  0  0  0  0  0
   -2.3517   -3.2541    0.7430 B   0  0  1  0  0  0  0  0  0  0  0  0
   -2.7026   -3.9792    1.6497 H   0  0  0  0  0  0  0  0  0  0  0  0
   -1.7267   -3.8343   -0.8235 B   0  0  1  0  0  0  0  0  0  0  0  0
   -1.6217   -5.0162   -1.0724 H   0  0  0  0  0  0  0  0  0  0  0  0
  2 14  1  0  0  0  0
  3  4  1  1  0  0  0
  3 20  1  0  0  0  0
  3 18  1  0  0  0  0
  4  2  1  0  0  0  0
  4  1  1  1  0  0  0
  5  2  1  0  0  0  0
  5  6  1  0  0  0  0
  5  8  1  0  0  0  0
  7  5  1  0  0  0  0
  8  9  1  0  0  0  0
 10  8  1  0  0  0  0
 11 14  1  0  0  0  0
 11  8  1  0  0  0  0
 11 12  1  0  0  0  0
 13 11  1  0  0  0  0
 14 16  1  0  0  0  0
 15 14  1  0  0  0  0
 17 32  1  0  0  0  0
 18 19  1  1  0  0  0
 20 34  1  0  0  0  0
 20 21  1  1  0  0  0
 22 26  1  0  0  0  0
 23 22  1  0  0  0  0
 24 25  1  6  0  0  0
 24 30  1  0  0  0  0
 24  3  1  0  0  0  0
 26 27  1  6  0  0  0
 26 20  1  0  0  0  0
 28 29  1  6  0  0  0
 28 24  1  0  0  0  0
 28 22  1  0  0  0  0
 28 26  1  0  0  0  0
 30 31  1  6  0  0  0
 30 36  1  0  0  0  0
 30 17  1  0  0  0  0
 32 33  1  1  0  0  0
 32 18  1  0  0  0  0
 34 18  1  0  0  0  0
 34 35  1  1  0  0  0
 36 37  1  6  0  0  0
 36 32  1  0  0  0  0
 36 34  1  0  0  0  0
M  END
