23
 OpenBabel05122313063D

 26 28  0  0  1  0  0  0  0  0999 V2000
   -4.2678    0.8564   -0.8611 C   0  0  2  0  0  0  0  0  0  0  0  0
   -3.9628   -1.3707   -0.3821 C   0  0  0  0  0  0  0  0  0  0  0  0
   -3.7326   -2.7495   -0.4248 C   0  0  0  0  0  0  0  0  0  0  0  0
   -3.6263   -3.4413    0.8042 C   0  0  0  0  0  0  0  0  0  0  0  0
   -3.7433   -2.7648    2.0288 C   0  0  0  0  0  0  0  0  0  0  0  0
   -3.9446   -1.3672    2.0660 C   0  0  0  0  0  0  0  0  0  0  0  0
   -4.0386   -0.6892    0.8528 C   0  0  0  0  0  0  0  0  0  0  0  0
   -3.2562   -0.6149   -2.6197 C   0  0  0  0  0  0  0  0  0  0  0  0
   -1.7627   -0.5872   -2.2215 C   0  0  0  0  0  0  0  0  0  0  0  0
   -5.1302    1.5192    1.2407 C   0  0  0  0  0  0  0  0  0  0  0  0
   -6.1566    1.7906    0.1306 C   0  0  0  0  0  0  0  0  0  0  0  0
   -3.5868    1.6084   -1.3077 H   0  0  0  0  0  0  0  0  0  0  0  0
   -3.6429   -3.2828   -1.3816 H   0  0  0  0  0  0  0  0  0  0  0  0
   -3.4509   -4.5271    0.7949 H   0  0  0  0  0  0  0  0  0  0  0  0
   -3.6579   -3.3228    2.9723 H   0  0  0  0  0  0  0  0  0  0  0  0
   -3.9735   -0.8253    3.0218 H   0  0  0  0  0  0  0  0  0  0  0  0
   -3.5019   -1.5689   -3.1230 H   0  0  0  0  0  0  0  0  0  0  0  0
   -5.6117    0.9921    2.0864 H   0  0  0  0  0  0  0  0  0  0  0  0
   -3.4794    0.2005   -3.3361 H   0  0  0  0  0  0  0  0  0  0  0  0
   -4.7381    2.4880    1.6187 H   0  0  0  0  0  0  0  0  0  0  0  0
   -4.0793   -0.4437   -1.4288 N   0  0  0  0  0  0  0  0  0  0  0  0
   -4.1015    0.7063    0.5997 N   0  0  0  0  0  0  0  0  0  0  0  0
   -1.4823    0.3239   -1.3747 O   0  5  0  0  0  0  0  0  0  0  0  0
   -0.9736   -1.4689   -2.6633 O   0  0  0  0  0  0  0  0  0  0  0  0
   -7.2394    2.3076    0.2409 O   0  0  0  0  0  0  0  0  0  0  0  0
   -5.6327    1.3594   -1.0508 O   0  0  0  0  0  0  0  0  0  0  0  0
  1 12  1  6  0  0  0
  1 22  1  0  0  0  0
  2  7  1  0  0  0  0
  3  2  2  0  0  0  0
  3  4  1  0  0  0  0
  4  5  2  0  0  0  0
  5  6  1  0  0  0  0
  5 15  1  0  0  0  0
  6 16  1  0  0  0  0
  7  6  2  0  0  0  0
  8  9  1  0  0  0  0
  8 21  1  0  0  0  0
  9 23  1  0  0  0  0
 10 20  1  0  0  0  0
 10 18  1  0  0  0  0
 11 25  2  0  0  0  0
 11 10  1  0  0  0  0
 13  3  1  0  0  0  0
 14  4  1  0  0  0  0
 17  8  1  0  0  0  0
 19  8  1  0  0  0  0
 21  1  1  0  0  0  0
 21  2  1  0  0  0  0
 22  7  1  0  0  0  0
 22 10  1  0  0  0  0
 24  9  2  0  0  0  0
 26  1  1  0  0  0  0
 26 11  1  0  0  0  0
M  CHG  1  23  -1
M  END
