1
 OpenBabel05122313063D

 12 11  0  0  0  0  0  0  0  0999 V2000
   -1.2383   -0.0462   -1.5460 O   0  0  0  0  0  1  0  0  0  0  0  0
   -2.5326   -0.4098   -1.0818 O   0  0  0  0  0  0  0  0  0  0  0  0
   -3.3750    0.7365   -1.1486 C   0  0  0  0  0  0  0  0  0  0  0  0
   -4.7797    0.3250   -0.7214 C   0  0  0  0  0  0  0  0  0  0  0  0
   -4.8741   -0.1670    0.7245 C   0  0  0  0  0  0  0  0  0  0  0  0
   -3.3727    1.1352   -2.1890 H   0  0  0  0  0  0  0  0  0  0  0  0
   -2.9894    1.5370   -0.4770 H   0  0  0  0  0  0  0  0  0  0  0  0
   -5.4312    1.2137   -0.8674 H   0  0  0  0  0  0  0  0  0  0  0  0
   -5.1555   -0.4522   -1.4220 H   0  0  0  0  0  0  0  0  0  0  0  0
   -4.4244    0.5606    1.4320 H   0  0  0  0  0  0  0  0  0  0  0  0
   -4.3294   -1.1242    0.8495 H   0  0  0  0  0  0  0  0  0  0  0  0
   -5.9278   -0.3396    1.0232 H   0  0  0  0  0  0  0  0  0  0  0  0
  1  2  1  0  0  0  0
  3  2  1  0  0  0  0
  3  4  1  0  0  0  0
  3  7  1  0  0  0  0
  4  5  1  0  0  0  0
  5 11  1  0  0  0  0
  5 12  1  0  0  0  0
  5 10  1  0  0  0  0
  6  3  1  0  0  0  0
  8  4  1  0  0  0  0
  9  4  1  0  0  0  0
M  END
