2
 OpenBabel05122313063D

 14 14  0  0  0  0  0  0  0  0999 V2000
   -4.2455   -0.1106    1.4949 S   0  0  0  0  0  0  0  0  0  0  0  0
   -1.7216   -0.2345    0.0838 O   0  5  0  0  0  0  0  0  0  0  0  0
   -2.5245   -0.5006   -2.0285 O   0  0  0  0  0  0  0  0  0  0  0  0
   -2.6773   -0.3646   -0.7774 C   0  0  0  0  0  0  0  0  0  0  0  0
   -4.0442   -0.3269   -0.2279 C   0  0  0  0  0  0  0  0  0  0  0  0
   -5.2731   -0.4275   -0.8904 C   0  0  0  0  0  0  0  0  0  0  0  0
   -6.3631   -0.3201    0.0296 C   0  0  0  0  0  0  0  0  0  0  0  0
   -7.4174   -0.3749   -0.2769 H   0  0  0  0  0  0  0  0  0  0  0  0
   -5.9627   -0.1422    1.3423 C   0  0  0  0  0  0  0  0  0  0  0  0
   -6.5982   -0.0374    2.2307 H   0  0  0  0  0  0  0  0  0  0  0  0
   -5.4398   -0.6223   -2.3693 C   0  0  0  0  0  0  0  0  0  0  0  0
   -6.5105   -0.6752   -2.6428 H   0  0  0  0  0  0  0  0  0  0  0  0
   -4.9346   -1.5480   -2.7092 H   0  0  0  0  0  0  0  0  0  0  0  0
   -4.9628    0.2014   -2.9365 H   0  0  0  0  0  0  0  0  0  0  0  0
  3  4  2  0  0  0  0
  4  5  1  0  0  0  0
  4  2  1  0  0  0  0
  5  1  1  0  0  0  0
  6  5  2  0  0  0  0
  6  7  1  0  0  0  0
  7  9  2  0  0  0  0
  8  7  1  0  0  0  0
  9  1  1  0  0  0  0
  9 10  1  0  0  0  0
 11  6  1  0  0  0  0
 12 11  1  0  0  0  0
 13 11  1  0  0  0  0
 14 11  1  0  0  0  0
M  CHG  1   2  -1
M  END
