3
 OpenBabel05122313063D

 11 11  0  0  0  0  0  0  0  0999 V2000
    5.0444    0.7538   -1.3883 S   0  0  0  0  0  0  0  0  0  0  0  0
    2.1975   -0.0276    1.2496 O   0  5  0  0  0  0  0  0  0  0  0  0
    2.1272    0.4508   -0.9528 O   0  0  0  0  0  0  0  0  0  0  0  0
    2.7543    0.2631    0.1547 C   0  0  0  0  0  0  0  0  0  0  0  0
    4.2374    0.3739    0.1090 C   0  0  0  0  0  0  0  0  0  0  0  0
    5.1486    0.2051    1.1417 C   0  0  0  0  0  0  0  0  0  0  0  0
    4.8172   -0.0412    2.1591 H   0  0  0  0  0  0  0  0  0  0  0  0
    6.4985    0.3816    0.7223 C   0  0  0  0  0  0  0  0  0  0  0  0
    7.3715    0.2913    1.3841 H   0  0  0  0  0  0  0  0  0  0  0  0
    6.5960    0.6823   -0.6279 C   0  0  0  0  0  0  0  0  0  0  0  0
    7.5060    0.8678   -1.2126 H   0  0  0  0  0  0  0  0  0  0  0  0
  1 10  1  0  0  0  0
  1  5  1  0  0  0  0
  3  4  2  0  0  0  0
  4  2  1  0  0  0  0
  5  4  1  0  0  0  0
  5  6  2  0  0  0  0
  6  7  1  0  0  0  0
  8  6  1  0  0  0  0
  8  9  1  0  0  0  0
 10  8  2  0  0  0  0
 11 10  1  0  0  0  0
M  CHG  1   2  -1
M  END
