3
 OpenBabel05122313063D

 18 18  0  0  0  0  0  0  0  0999 V2000
    6.2229    2.1938   -0.1509 N   0  0  0  0  0  0  0  0  0  0  0  0
    1.8851    4.0721   -1.6252 N   0  0  0  0  0  0  0  0  0  0  0  0
    1.4013   -1.0248   -1.8950 O   0  5  0  0  0  0  0  0  0  0  0  0
    3.5241   -1.8218   -1.9042 O   0  0  0  0  0  0  0  0  0  0  0  0
    6.7992    1.1786    0.2511 O   0  0  0  0  0  0  0  0  0  0  0  0
    6.6473    3.3416   -0.0312 O   0  0  0  0  0  0  0  0  0  0  0  0
    2.3045    5.1669   -1.2507 O   0  0  0  0  0  0  0  0  0  0  0  0
    0.7774    3.8602   -2.1121 O   0  0  0  0  0  0  0  0  0  0  0  0
    2.6921   -0.9070   -1.8539 C   0  0  0  0  0  0  0  0  0  0  0  0
    3.1867    0.5237   -1.6310 C   0  0  0  0  0  0  0  0  0  0  0  0
    4.4883    0.7188   -1.1440 C   0  0  0  0  0  0  0  0  0  0  0  0
    5.1468   -0.1496   -1.0096 H   0  0  0  0  0  0  0  0  0  0  0  0
    4.9023    2.0102   -0.7946 C   0  0  0  0  0  0  0  0  0  0  0  0
    4.0824    3.1313   -0.9655 C   0  0  0  0  0  0  0  0  0  0  0  0
    4.4178    4.1378   -0.6887 H   0  0  0  0  0  0  0  0  0  0  0  0
    2.7986    2.9064   -1.4725 C   0  0  0  0  0  0  0  0  0  0  0  0
    2.3305    1.6280   -1.7980 C   0  0  0  0  0  0  0  0  0  0  0  0
    1.2935    1.4865   -2.1278 H   0  0  0  0  0  0  0  0  0  0  0  0
  1  6  2  0  0  0  0
  1  5  2  0  0  0  0
  2 16  1  0  0  0  0
  2  7  2  0  0  0  0
  3  9  1  0  0  0  0
  4  9  2  0  0  0  0
  8  2  2  0  0  0  0
  9 10  1  0  0  0  0
 10 11  1  0  0  0  0
 11 12  1  0  0  0  0
 11 13  2  0  0  0  0
 13  1  1  0  0  0  0
 14 13  1  0  0  0  0
 14 15  1  0  0  0  0
 16 14  2  0  0  0  0
 17 10  2  0  0  0  0
 17 16  1  0  0  0  0
 18 17  1  0  0  0  0
M  CHG  1   3  -1
M  END
