4
 OpenBabel05122313063D

 16 16  0  0  0  0  0  0  0  0999 V2000
   -2.2169   -2.2813   -1.4212 O   0  5  0  0  0  0  0  0  0  0  0  0
   -2.0553   -2.2153    0.8471 O   0  0  0  0  0  0  0  0  0  0  0  0
   -1.4636    1.2821    1.8766 O   0  5  0  0  0  0  0  0  0  0  0  0
   -0.9568    0.1847   -0.0512 O   0  0  0  0  0  0  0  0  0  0  0  0
   -2.5401   -1.8567   -0.2773 C   0  0  0  0  0  0  0  0  0  0  0  0
   -1.7782    0.6785    0.8331 C   0  0  0  0  0  0  0  0  0  0  0  0
   -3.5861   -0.7609   -0.1815 C   0  0  0  0  0  0  0  0  0  0  0  0
   -3.2129    0.4645    0.4294 C   0  0  0  0  0  0  0  0  0  0  0  0
   -4.1698    1.4710    0.6364 C   0  0  0  0  0  0  0  0  0  0  0  0
   -5.4932    1.2836    0.2101 C   0  0  0  0  0  0  0  0  0  0  0  0
   -5.8586    0.0848   -0.4247 C   0  0  0  0  0  0  0  0  0  0  0  0
   -4.9082   -0.9302   -0.6215 C   0  0  0  0  0  0  0  0  0  0  0  0
   -6.2413    2.0747    0.3716 H   0  0  0  0  0  0  0  0  0  0  0  0
   -5.1914   -1.8744   -1.1109 H   0  0  0  0  0  0  0  0  0  0  0  0
   -3.8579    2.4030    1.1317 H   0  0  0  0  0  0  0  0  0  0  0  0
   -6.8955   -0.0632   -0.7647 H   0  0  0  0  0  0  0  0  0  0  0  0
  1  5  1  0  0  0  0
  4  6  2  0  0  0  0
  5  7  1  0  0  0  0
  5  2  2  0  0  0  0
  6  3  1  0  0  0  0
  7  8  1  0  0  0  0
  8  9  2  0  0  0  0
  8  6  1  0  0  0  0
  9 15  1  0  0  0  0
 10 13  1  0  0  0  0
 10  9  1  0  0  0  0
 11 10  2  0  0  0  0
 12 11  1  0  0  0  0
 12  7  2  0  0  0  0
 14 12  1  0  0  0  0
 16 11  1  0  0  0  0
M  CHG  2   1  -1   3  -1
M  END
