1
 OpenBabel05122313063D

  4  3  0  0  0  0  0  0  0  0999 V2000
    0.0102   -0.8810   -1.9105 O   0  0  0  0  0  1  0  0  0  0  0  0
   -0.4186   -2.0113   -1.4224 C   0  0  0  0  0  3  0  0  0  0  0  0
    0.1973   -2.9378   -1.5518 H   0  0  0  0  0  0  0  0  0  0  0  0
   -1.5208   -2.2018   -1.3612 H   0  0  0  0  0  0  0  0  0  0  0  0
  1  2  1  0  0  0  0
  2  4  1  0  0  0  0
  3  2  1  0  0  0  0
M  END
