1
 OpenBabel05122313063D

 22 22  0  0  0  0  0  0  0  0999 V2000
   -1.6926   -0.4204   -0.3114 O   0  5  0  0  0  0  0  0  0  0  0  0
   -2.3702   -1.4525   -2.2053 O   0  0  0  0  0  0  0  0  0  0  0  0
   -7.6881   -2.0131    1.3776 N   0  0  0  0  0  0  0  0  0  0  0  0
   -2.5722   -1.0418   -1.0131 C   0  0  0  0  0  0  0  0  0  0  0  0
   -3.9000   -1.2897   -0.3846 C   0  0  0  0  0  0  0  0  0  0  0  0
   -4.9407   -1.8895   -1.1230 C   0  0  0  0  0  0  0  0  0  0  0  0
   -4.7388   -2.1649   -2.1686 H   0  0  0  0  0  0  0  0  0  0  0  0
   -6.1899   -2.1294   -0.5531 C   0  0  0  0  0  0  0  0  0  0  0  0
   -6.9713   -2.5966   -1.1660 H   0  0  0  0  0  0  0  0  0  0  0  0
   -6.4534   -1.7781    0.8039 C   0  0  0  0  0  0  0  0  0  0  0  0
   -5.3944   -1.1781    1.5477 C   0  0  0  0  0  0  0  0  0  0  0  0
   -5.5448   -0.8993    2.5986 H   0  0  0  0  0  0  0  0  0  0  0  0
   -4.1525   -0.9435    0.9589 C   0  0  0  0  0  0  0  0  0  0  0  0
   -3.3374   -0.4895    1.5418 H   0  0  0  0  0  0  0  0  0  0  0  0
   -7.9241   -1.6590    2.7619 C   0  0  0  0  0  0  0  0  0  0  0  0
   -8.9635   -1.9166    3.0342 H   0  0  0  0  0  0  0  0  0  0  0  0
   -7.7854   -0.5693    2.9454 H   0  0  0  0  0  0  0  0  0  0  0  0
   -7.2451   -2.2022    3.4583 H   0  0  0  0  0  0  0  0  0  0  0  0
   -8.7402   -2.6397    0.6037 C   0  0  0  0  0  0  0  0  0  0  0  0
   -9.6453   -2.7400    1.2295 H   0  0  0  0  0  0  0  0  0  0  0  0
   -8.4552   -3.6572    0.2511 H   0  0  0  0  0  0  0  0  0  0  0  0
   -9.0130   -2.0410   -0.2948 H   0  0  0  0  0  0  0  0  0  0  0  0
  2  4  2  0  0  0  0
  3 15  1  0  0  0  0
  4  5  1  0  0  0  0
  4  1  1  0  0  0  0
  5 13  1  0  0  0  0
  6  8  1  0  0  0  0
  6  5  2  0  0  0  0
  7  6  1  0  0  0  0
  8 10  2  0  0  0  0
  9  8  1  0  0  0  0
 10  3  1  0  0  0  0
 10 11  1  0  0  0  0
 11 12  1  0  0  0  0
 13 14  1  0  0  0  0
 13 11  2  0  0  0  0
 15 17  1  0  0  0  0
 15 16  1  0  0  0  0
 15 18  1  0  0  0  0
 19 20  1  0  0  0  0
 19  3  1  0  0  0  0
 21 19  1  0  0  0  0
 22 19  1  0  0  0  0
M  CHG  1   1  -1
M  END
