9
 OpenBabel05122313063D

 57 58  0  0  0  0  0  0  0  0999 V2000
   -1.9153   -0.4754   -0.5494 P   0  0  0  0  0  4  0  0  0  0  0  0
    1.6364   -1.1585   -0.5630 As  0  0  0  0  0  0  0  0  0  0  0  0
   -1.0676   -1.4574   -1.8459 C   0  0  0  0  0  0  0  0  0  0  0  0
   -1.8172   -2.1528   -2.2793 H   0  0  0  0  0  0  0  0  0  0  0  0
   -0.7251   -0.7579   -2.6312 H   0  0  0  0  0  0  0  0  0  0  0  0
    0.0904   -2.2359   -1.2187 C   0  0  0  0  0  0  0  0  0  0  0  0
    0.5050   -2.9570   -1.9503 H   0  0  0  0  0  0  0  0  0  0  0  0
   -0.2649   -2.8290   -0.3526 H   0  0  0  0  0  0  0  0  0  0  0  0
   -0.9150    0.0465    0.5397 O   0  0  0  0  0  1  0  0  0  0  0  0
   -3.0168   -1.6194    0.3352 C   0  0  0  0  0  0  0  0  0  0  0  0
   -4.1867   -2.0971   -0.2910 C   0  0  0  0  0  0  0  0  0  0  0  0
   -4.4646   -1.7447   -1.2972 H   0  0  0  0  0  0  0  0  0  0  0  0
   -5.0115   -3.0090    0.3816 C   0  0  0  0  0  0  0  0  0  0  0  0
   -5.9261   -3.3803   -0.1041 H   0  0  0  0  0  0  0  0  0  0  0  0
   -4.6771   -3.4385    1.6773 C   0  0  0  0  0  0  0  0  0  0  0  0
   -5.3301   -4.1505    2.2038 H   0  0  0  0  0  0  0  0  0  0  0  0
   -3.5182   -2.9546    2.3043 C   0  0  0  0  0  0  0  0  0  0  0  0
   -3.2631   -3.2847    3.3224 H   0  0  0  0  0  0  0  0  0  0  0  0
   -2.6838   -2.0455    1.6363 C   0  0  0  0  0  0  0  0  0  0  0  0
   -1.7799   -1.6459    2.1177 H   0  0  0  0  0  0  0  0  0  0  0  0
   -2.9652    0.7947   -1.2942 C   0  0  0  0  0  0  0  0  0  0  0  0
   -3.2826    0.8000   -2.6666 C   0  0  0  0  0  0  0  0  0  0  0  0
   -2.8633    0.0429   -3.3454 H   0  0  0  0  0  0  0  0  0  0  0  0
   -4.1300    1.7931   -3.1781 C   0  0  0  0  0  0  0  0  0  0  0  0
   -4.3782    1.7992   -4.2498 H   0  0  0  0  0  0  0  0  0  0  0  0
   -4.6515    2.7814   -2.3282 C   0  0  0  0  0  0  0  0  0  0  0  0
   -5.3120    3.5616   -2.7351 H   0  0  0  0  0  0  0  0  0  0  0  0
   -4.3320    2.7770   -0.9602 C   0  0  0  0  0  0  0  0  0  0  0  0
   -4.7425    3.5516   -0.2955 H   0  0  0  0  0  0  0  0  0  0  0  0
   -3.4932    1.7836   -0.4385 C   0  0  0  0  0  0  0  0  0  0  0  0
   -3.2453    1.7744    0.6340 H   0  0  0  0  0  0  0  0  0  0  0  0
    2.2919   -2.4180    0.9111 C   0  0  0  0  0  0  0  0  0  0  0  0
    2.9252   -1.2120   -2.1538 C   0  0  0  0  0  0  0  0  0  0  0  0
    1.2749   -2.2813    2.0546 C   0  0  0  0  0  0  0  0  0  0  0  0
    0.2912   -2.7144    1.7860 H   0  0  0  0  0  0  0  0  0  0  0  0
    1.1064   -1.2288    2.3459 H   0  0  0  0  0  0  0  0  0  0  0  0
    1.6455   -2.8362    2.9424 H   0  0  0  0  0  0  0  0  0  0  0  0
    3.6839   -1.9554    1.3638 C   0  0  0  0  0  0  0  0  0  0  0  0
    4.0109   -2.5624    2.2348 H   0  0  0  0  0  0  0  0  0  0  0  0
    3.6967   -0.8949    1.6788 H   0  0  0  0  0  0  0  0  0  0  0  0
    4.4472   -2.0838    0.5722 H   0  0  0  0  0  0  0  0  0  0  0  0
    2.3395   -3.8911    0.4773 C   0  0  0  0  0  0  0  0  0  0  0  0
    2.5876   -4.5074    1.3681 H   0  0  0  0  0  0  0  0  0  0  0  0
    3.1098   -4.0974   -0.2846 H   0  0  0  0  0  0  0  0  0  0  0  0
    1.3653   -4.2583    0.1002 H   0  0  0  0  0  0  0  0  0  0  0  0
    2.1176   -0.9524   -3.4350 C   0  0  0  0  0  0  0  0  0  0  0  0
    1.5620    0.0027   -3.3890 H   0  0  0  0  0  0  0  0  0  0  0  0
    1.4083   -1.7738   -3.6594 H   0  0  0  0  0  0  0  0  0  0  0  0
    2.8263   -0.9008   -4.2892 H   0  0  0  0  0  0  0  0  0  0  0  0
    3.9292   -0.0752   -1.9364 C   0  0  0  0  0  0  0  0  0  0  0  0
    4.6402   -0.0406   -2.7887 H   0  0  0  0  0  0  0  0  0  0  0  0
    4.5272   -0.2093   -1.0122 H   0  0  0  0  0  0  0  0  0  0  0  0
    3.4091    0.8986   -1.8882 H   0  0  0  0  0  0  0  0  0  0  0  0
    3.6464   -2.5577   -2.2811 C   0  0  0  0  0  0  0  0  0  0  0  0
    2.9462   -3.4077   -2.4028 H   0  0  0  0  0  0  0  0  0  0  0  0
    4.3215   -2.7718   -1.4313 H   0  0  0  0  0  0  0  0  0  0  0  0
    4.2764   -2.5271   -3.1958 H   0  0  0  0  0  0  0  0  0  0  0  0
  1 10  1  0  0  0  0
  1  9  1  0  0  0  0
  2 32  1  0  0  0  0
  3  6  1  0  0  0  0
  3  1  1  0  0  0  0
  4  3  1  0  0  0  0
  5  3  1  0  0  0  0
  6  2  1  0  0  0  0
  6  8  1  0  0  0  0
  7  6  1  0  0  0  0
 10 19  1  0  0  0  0
 11 10  2  0  0  0  0
 11 13  1  0  0  0  0
 12 11  1  0  0  0  0
 13 15  2  0  0  0  0
 14 13  1  0  0  0  0
 15 16  1  0  0  0  0
 15 17  1  0  0  0  0
 17 18  1  0  0  0  0
 19 20  1  0  0  0  0
 19 17  2  0  0  0  0
 21  1  1  0  0  0  0
 21 30  1  0  0  0  0
 22 21  2  0  0  0  0
 23 22  1  0  0  0  0
 24 22  1  0  0  0  0
 24 26  2  0  0  0  0
 25 24  1  0  0  0  0
 26 28  1  0  0  0  0
 27 26  1  0  0  0  0
 28 30  2  0  0  0  0
 28 29  1  0  0  0  0
 30 31  1  0  0  0  0
 32 38  1  0  0  0  0
 32 34  1  0  0  0  0
 33 50  1  0  0  0  0
 33  2  1  0  0  0  0
 34 36  1  0  0  0  0
 34 37  1  0  0  0  0
 35 34  1  0  0  0  0
 38 40  1  0  0  0  0
 38 39  1  0  0  0  0
 41 38  1  0  0  0  0
 42 32  1  0  0  0  0
 42 43  1  0  0  0  0
 44 42  1  0  0  0  0
 45 42  1  0  0  0  0
 46 47  1  0  0  0  0
 46 33  1  0  0  0  0
 48 46  1  0  0  0  0
 49 46  1  0  0  0  0
 50 53  1  0  0  0  0
 50 52  1  0  0  0  0
 51 50  1  0  0  0  0
 54 33  1  0  0  0  0
 54 56  1  0  0  0  0
 55 54  1  0  0  0  0
 57 54  1  0  0  0  0
M  END
