2
 OpenBabel05122313063D

 19 19  0  0  0  0  0  0  0  0999 V2000
   -2.5208   -0.2376    1.2024 O   0  5  0  0  0  0  0  0  0  0  0  0
   -1.5889    1.2373   -0.2243 O   0  0  0  0  0  0  0  0  0  0  0  0
   -7.2690    4.0687    0.6990 N   0  0  0  0  0  0  0  0  0  0  0  0
   -7.9779    3.7844    1.3714 H   0  0  0  0  0  0  0  0  0  0  0  0
   -2.5581    0.8304    0.5298 C   0  0  0  0  0  0  0  0  0  0  0  0
   -3.7791    1.6916    0.5653 C   0  0  0  0  0  0  0  0  0  0  0  0
   -3.8552    2.8931   -0.1664 C   0  0  0  0  0  0  0  0  0  0  0  0
   -2.9839    3.1889   -0.7685 H   0  0  0  0  0  0  0  0  0  0  0  0
   -4.9988    3.6955   -0.1289 C   0  0  0  0  0  0  0  0  0  0  0  0
   -5.0240    4.6293   -0.7077 H   0  0  0  0  0  0  0  0  0  0  0  0
   -6.1209    3.3104    0.6526 C   0  0  0  0  0  0  0  0  0  0  0  0
   -6.0397    2.0985    1.3933 C   0  0  0  0  0  0  0  0  0  0  0  0
   -6.9012    1.7872    2.0071 H   0  0  0  0  0  0  0  0  0  0  0  0
   -4.8919    1.3118    1.3472 C   0  0  0  0  0  0  0  0  0  0  0  0
   -4.8219    0.3744    1.9187 H   0  0  0  0  0  0  0  0  0  0  0  0
   -7.4115    5.3573    0.0721 C   0  0  0  0  0  0  0  0  0  0  0  0
   -8.4254    5.7521    0.2720 H   0  0  0  0  0  0  0  0  0  0  0  0
   -7.2899    5.2948   -1.0326 H   0  0  0  0  0  0  0  0  0  0  0  0
   -6.6725    6.1068    0.4433 H   0  0  0  0  0  0  0  0  0  0  0  0
  2  5  2  0  0  0  0
  3  4  1  0  0  0  0
  5  6  1  0  0  0  0
  5  1  1  0  0  0  0
  6 14  1  0  0  0  0
  7  9  1  0  0  0  0
  7  6  2  0  0  0  0
  8  7  1  0  0  0  0
  9 11  2  0  0  0  0
 10  9  1  0  0  0  0
 11  3  1  0  0  0  0
 11 12  1  0  0  0  0
 12 13  1  0  0  0  0
 14 12  2  0  0  0  0
 14 15  1  0  0  0  0
 16 17  1  0  0  0  0
 16 19  1  0  0  0  0
 16  3  1  0  0  0  0
 18 16  1  0  0  0  0
M  CHG  1   1  -1
M  END
