9
 OpenBabel05122313063D

 14 13  0  0  1  0  0  0  0  0999 V2000
    2.8209   -0.5338    0.2560 C   0  0  1  0  0  0  0  0  0  0  0  0
    2.8135   -0.1674    1.3097 H   0  0  0  0  0  0  0  0  0  0  0  0
    2.0949   -1.9126    0.2630 C   0  0  0  0  0  0  0  0  0  0  0  0
    4.2527   -0.6367   -0.2546 C   0  0  0  0  0  0  0  0  0  0  0  0
    4.7595   -1.4794    0.2503 H   0  0  0  0  0  0  0  0  0  0  0  0
    4.2323   -0.8881   -1.3380 H   0  0  0  0  0  0  0  0  0  0  0  0
    5.0900    0.6116   -0.0845 C   0  0  0  0  0  0  0  0  0  0  0  0
    2.0388    0.3784   -0.5534 O   0  0  0  0  0  0  0  0  0  0  0  0
    0.7896   -1.8298    0.1701 O   0  5  0  0  0  0  0  0  0  0  0  0
    2.7527   -2.9383    0.3763 O   0  0  0  0  0  0  0  0  0  0  0  0
    4.3244    1.7543   -0.1939 O   0  0  0  0  0  0  0  0  0  0  0  0
    6.2834    0.6649    0.1043 O   0  0  0  0  0  0  0  0  0  0  0  0
    2.4812    1.2558   -0.4941 H   0  0  0  0  0  0  0  0  0  0  0  0
    4.9377    2.5126   -0.0751 H   0  0  0  0  0  0  0  0  0  0  0  0
  1  3  1  0  0  0  0
  1  2  1  1  0  0  0
  3 10  2  0  0  0  0
  4  7  1  0  0  0  0
  4  5  1  0  0  0  0
  4  1  1  0  0  0  0
  6  4  1  0  0  0  0
  7 12  2  0  0  0  0
  8 13  1  0  0  0  0
  8  1  1  0  0  0  0
  9  3  1  0  0  0  0
 11  7  1  0  0  0  0
 11 14  1  0  0  0  0
M  CHG  1   9  -1
M  END
