3
 OpenBabel05122313063D

 16 17  0  0  0  0  0  0  0  0999 V2000
    1.9895   -2.3219   -0.6064 O   0  0  0  0  0  0  0  0  0  0  0  0
    1.9893    2.3216   -0.6062 O   0  0  0  0  0  0  0  0  0  0  0  0
    0.3934   -0.0002   -1.0345 O   0  0  0  0  0  1  0  0  0  0  0  0
    1.6880   -0.0001   -0.7185 N   0  0  0  0  0  0  0  0  0  0  0  0
    2.4269    1.1873   -0.5153 C   0  0  0  0  0  0  0  0  0  0  0  0
    3.8026   -0.7048   -0.1743 C   0  0  0  0  0  0  0  0  0  0  0  0
    2.4270   -1.1875   -0.5154 C   0  0  0  0  0  0  0  0  0  0  0  0
    3.8026    0.7046   -0.1743 C   0  0  0  0  0  0  0  0  0  0  0  0
    6.1296   -0.7032    0.4094 C   0  0  0  0  0  0  0  0  0  0  0  0
    7.0590   -1.2435    0.6444 H   0  0  0  0  0  0  0  0  0  0  0  0
    6.1295    0.7032    0.4094 C   0  0  0  0  0  0  0  0  0  0  0  0
    7.0589    1.2436    0.6445 H   0  0  0  0  0  0  0  0  0  0  0  0
    4.9570   -1.4302    0.1142 C   0  0  0  0  0  0  0  0  0  0  0  0
    4.9419   -2.5300    0.1116 H   0  0  0  0  0  0  0  0  0  0  0  0
    4.9569    1.4301    0.1143 C   0  0  0  0  0  0  0  0  0  0  0  0
    4.9417    2.5300    0.1117 H   0  0  0  0  0  0  0  0  0  0  0  0
  1  7  2  0  0  0  0
  2  5  2  0  0  0  0
  3  4  1  0  0  0  0
  4  7  1  0  0  0  0
  4  5  1  0  0  0  0
  5  8  1  0  0  0  0
  6  8  2  0  0  0  0
  6 13  1  0  0  0  0
  7  6  1  0  0  0  0
  8 15  1  0  0  0  0
  9 11  1  0  0  0  0
  9 10  1  0  0  0  0
 11 12  1  0  0  0  0
 13  9  2  0  0  0  0
 14 13  1  0  0  0  0
 15 11  2  0  0  0  0
 16 15  1  0  0  0  0
M  END
