1
 OpenBabel05122313063D

 20 19  0  0  0  0  0  0  0  0999 V2000
    0.5394   -1.6406   -0.4305 O   0  0  0  0  0  0  0  0  0  0  0  0
    1.6981   -2.1810   -0.9211 C   0  0  0  0  0  0  0  0  0  0  0  0
    1.3611   -3.6751   -1.3395 C   0  0  0  0  0  0  0  0  0  0  0  0
    2.1165   -1.3486   -2.1873 C   0  0  0  0  0  0  0  0  0  0  0  0
    2.8471   -2.2143    0.1689 C   0  0  0  0  0  0  0  0  0  0  0  0
    3.2327   -0.8668    0.8966 C   0  0  0  0  0  0  0  0  0  0  0  0
    3.8306   -1.0751    2.3325 C   0  0  0  0  0  0  0  0  0  0  0  0
    0.6454   -4.2673   -0.3746 F   0  0  0  0  0  0  0  0  0  0  0  0
    0.6143   -3.6797   -2.4640 F   0  0  0  0  0  0  0  0  0  0  0  0
    2.4640   -4.4032   -1.5730 F   0  0  0  0  0  0  0  0  0  0  0  0
    2.5042   -0.1126   -1.8141 F   0  0  0  0  0  0  0  0  0  0  0  0
    3.1289   -1.9359   -2.8481 F   0  0  0  0  0  0  0  0  0  0  0  0
    1.0776   -1.2100   -3.0214 F   0  0  0  0  0  0  0  0  0  0  0  0
    3.9969   -2.6750   -0.3788 F   0  0  0  0  0  0  0  0  0  0  0  0
    2.4489   -3.0827    1.1377 F   0  0  0  0  0  0  0  0  0  0  0  0
    4.1490   -0.2070    0.1738 F   0  0  0  0  0  0  0  0  0  0  0  0
    2.1337   -0.0451    1.0544 F   0  0  0  0  0  0  0  0  0  0  0  0
    2.8805   -1.4334    3.2036 F   0  0  0  0  0  0  0  0  0  0  0  0
    4.3688    0.0857    2.7349 F   0  0  0  0  0  0  0  0  0  0  0  0
    4.7894   -2.0125    2.2995 F   0  0  0  0  0  0  0  0  0  0  0  0
  2  1  1  0  0  0  0
  2  5  1  0  0  0  0
  3  2  1  0  0  0  0
  3  8  1  0  0  0  0
  4 11  1  0  0  0  0
  4  2  1  0  0  0  0
  5  6  1  0  0  0  0
  5 15  1  0  0  0  0
  6 17  1  0  0  0  0
  6  7  1  0  0  0  0
  7 19  1  0  0  0  0
  7 18  1  0  0  0  0
  9  3  1  0  0  0  0
 10  3  1  0  0  0  0
 12  4  1  0  0  0  0
 13  4  1  0  0  0  0
 14  5  1  0  0  0  0
 16  6  1  0  0  0  0
 20  7  1  0  0  0  0
M  END
