1
 OpenBabel05122313063D

 17 16  0  0  0  0  0  0  0  0999 V2000
   -0.9758   -0.9638   -1.7709 O   0  5  0  0  0  0  0  0  0  0  0  0
   -1.6200   -1.5993    0.2463 N   0  0  0  0  0  0  0  0  0  0  0  0
   -1.7506   -1.7253   -1.0641 C   0  0  0  0  0  0  0  0  0  0  0  0
   -2.7028   -2.6576   -1.7730 C   0  0  0  0  0  0  0  0  0  0  0  0
   -3.7540   -2.4329   -1.5019 H   0  0  0  0  0  0  0  0  0  0  0  0
   -2.5062   -3.7130   -1.4963 H   0  0  0  0  0  0  0  0  0  0  0  0
   -2.5762   -2.5386   -2.8634 H   0  0  0  0  0  0  0  0  0  0  0  0
   -2.3901   -2.3538    1.2276 C   0  0  0  0  0  0  0  0  0  0  0  0
   -3.0826   -3.0447    0.6935 H   0  0  0  0  0  0  0  0  0  0  0  0
   -3.2397   -1.4009    2.0796 C   0  0  0  0  0  0  0  0  0  0  0  0
   -2.5842   -0.6921    2.6227 H   0  0  0  0  0  0  0  0  0  0  0  0
   -3.8498   -1.9656    2.8135 H   0  0  0  0  0  0  0  0  0  0  0  0
   -3.9254   -0.8097    1.4386 H   0  0  0  0  0  0  0  0  0  0  0  0
   -1.4522   -3.2041    2.0953 C   0  0  0  0  0  0  0  0  0  0  0  0
   -0.8640   -3.9029    1.4658 H   0  0  0  0  0  0  0  0  0  0  0  0
   -2.0284   -3.8003    2.8317 H   0  0  0  0  0  0  0  0  0  0  0  0
   -0.7400   -2.5505    2.6361 H   0  0  0  0  0  0  0  0  0  0  0  0
  1  3  1  0  0  0  0
  2  8  1  0  0  0  0
  3  2  2  0  0  0  0
  4  5  1  0  0  0  0
  4  6  1  0  0  0  0
  4  3  1  0  0  0  0
  7  4  1  0  0  0  0
  8 10  1  0  0  0  0
  8 14  1  0  0  0  0
  9  8  1  0  0  0  0
 10 11  1  0  0  0  0
 10 12  1  0  0  0  0
 13 10  1  0  0  0  0
 14 17  1  0  0  0  0
 14 16  1  0  0  0  0
 15 14  1  0  0  0  0
M  CHG  1   1  -1
M  END
