1
 OpenBabel05122313063D

 20 19  0  0  0  0  0  0  0  0999 V2000
   -0.9586    0.9533   -1.7087 O   0  5  0  0  0  0  0  0  0  0  0  0
   -1.5914    1.5599    0.3212 N   0  0  0  0  0  0  0  0  0  0  0  0
   -1.7625    1.6747   -0.9855 C   0  0  0  0  0  0  0  0  0  0  0  0
   -2.7400    2.5387   -1.7485 C   0  0  0  0  0  0  0  0  0  0  0  0
   -2.2746    3.5257   -1.9497 H   0  0  0  0  0  0  0  0  0  0  0  0
   -3.6899    2.7102   -1.2136 H   0  0  0  0  0  0  0  0  0  0  0  0
   -2.9382    2.0580   -2.7243 H   0  0  0  0  0  0  0  0  0  0  0  0
   -2.3842    2.2158    1.3810 C   0  0  0  0  0  0  0  0  0  0  0  0
   -1.7009    1.9336    2.7314 C   0  0  0  0  0  0  0  0  0  0  0  0
   -1.5777    0.8461    2.8884 H   0  0  0  0  0  0  0  0  0  0  0  0
   -2.3073    2.3599    3.5557 H   0  0  0  0  0  0  0  0  0  0  0  0
   -0.6910    2.3832    2.7638 H   0  0  0  0  0  0  0  0  0  0  0  0
   -3.8047    1.6119    1.4224 C   0  0  0  0  0  0  0  0  0  0  0  0
   -4.3597    1.7692    0.4765 H   0  0  0  0  0  0  0  0  0  0  0  0
   -4.3978    2.0663    2.2419 H   0  0  0  0  0  0  0  0  0  0  0  0
   -3.7463    0.5203    1.6033 H   0  0  0  0  0  0  0  0  0  0  0  0
   -2.4331    3.7470    1.1885 C   0  0  0  0  0  0  0  0  0  0  0  0
   -1.4052    4.1445    1.0652 H   0  0  0  0  0  0  0  0  0  0  0  0
   -2.8796    4.2265    2.0828 H   0  0  0  0  0  0  0  0  0  0  0  0
   -3.0325    4.0598    0.3135 H   0  0  0  0  0  0  0  0  0  0  0  0
  1  3  1  0  0  0  0
  2  8  1  0  0  0  0
  3  2  2  0  0  0  0
  4  6  1  0  0  0  0
  4  3  1  0  0  0  0
  5  4  1  0  0  0  0
  7  4  1  0  0  0  0
  8 13  1  0  0  0  0
  8  9  1  0  0  0  0
  9 12  1  0  0  0  0
  9 10  1  0  0  0  0
  9 11  1  0  0  0  0
 13 16  1  0  0  0  0
 13 15  1  0  0  0  0
 14 13  1  0  0  0  0
 17  8  1  0  0  0  0
 17 19  1  0  0  0  0
 18 17  1  0  0  0  0
 20 17  1  0  0  0  0
M  CHG  1   1  -1
M  END
