3
 OpenBabel05122313063D

  9  9  0  0  0  0  0  0  0  0999 V2000
   -5.4816    2.1598    0.1732 O   0  0  0  0  0  0  0  0  0  0  0  0
   -2.0982    2.0663    0.1816 O   0  0  0  0  0  0  0  0  0  0  0  0
   -2.2511   -1.1458   -0.0239 O   0  5  0  0  0  0  0  0  0  0  0  0
   -5.5317   -1.0225   -0.1070 O   0  0  0  0  0  0  0  0  0  0  0  0
   -6.3769   -0.5181   -0.0835 H   0  0  0  0  0  0  0  0  0  0  0  0
   -4.5826    1.3358    0.1242 C   0  0  0  0  0  0  0  0  0  0  0  0
   -3.0524    1.2672    0.1354 C   0  0  0  0  0  0  0  0  0  0  0  0
   -3.1286   -0.2244    0.0292 C   0  0  0  0  0  0  0  0  0  0  0  0
   -4.5538   -0.1392   -0.0013 C   0  0  0  0  0  0  0  0  0  0  0  0
  3  8  1  0  0  0  0
  4  5  1  0  0  0  0
  4  9  1  0  0  0  0
  6  7  1  0  0  0  0
  6  1  2  0  0  0  0
  7  2  2  0  0  0  0
  8  7  1  0  0  0  0
  9  8  2  0  0  0  0
  9  6  1  0  0  0  0
M  CHG  1   3  -1
M  END
