2
 OpenBabel05122313063D

 16 15  0  0  1  0  0  0  0  0999 V2000
    1.5733    1.5699   -0.5764 S   0  0  0  0  0  0  0  0  0  0  0  0
    1.3604   -0.9627    1.1184 O   0  5  0  0  0  0  0  0  0  0  0  0
    3.5641   -1.4654    1.1392 O   0  0  0  0  0  0  0  0  0  0  0  0
    1.1265   -1.2702   -1.4599 N   0  0  0  0  0  0  0  0  0  0  0  0
    0.8976   -2.2675   -1.3408 H   0  0  0  0  0  0  0  0  0  0  0  0
    1.0023   -1.0507   -2.4593 H   0  0  0  0  0  0  0  0  0  0  0  0
    2.5301   -1.2009    0.5552 C   0  0  0  0  0  0  0  0  0  0  0  0
    2.5116   -1.0039   -0.9891 C   0  0  2  0  0  0  0  0  0  0  0  0
    3.2548   -1.6835   -1.4546 H   0  0  0  0  0  0  0  0  0  0  0  0
    2.8584    0.4501   -1.3062 C   0  0  0  0  0  0  0  0  0  0  0  0
    2.8684    0.6576   -2.3960 H   0  0  0  0  0  0  0  0  0  0  0  0
    3.8482    0.7175   -0.8893 H   0  0  0  0  0  0  0  0  0  0  0  0
    2.3426    2.0117    1.0215 C   0  0  0  0  0  0  0  0  0  0  0  0
    2.6174    1.1114    1.6006 H   0  0  0  0  0  0  0  0  0  0  0  0
    1.5816    2.5956    1.5717 H   0  0  0  0  0  0  0  0  0  0  0  0
    3.2220    2.6505    0.8145 H   0  0  0  0  0  0  0  0  0  0  0  0
  1 13  1  0  0  0  0
  4  5  1  0  0  0  0
  4  8  1  0  0  0  0
  6  4  1  0  0  0  0
  7  2  1  0  0  0  0
  7  3  2  0  0  0  0
  8  9  1  6  0  0  0
  8  7  1  0  0  0  0
 10  8  1  0  0  0  0
 10 12  1  0  0  0  0
 10  1  1  0  0  0  0
 11 10  1  0  0  0  0
 13 15  1  0  0  0  0
 13 14  1  0  0  0  0
 16 13  1  0  0  0  0
M  CHG  1   2  -1
M  END
