4
q = -1.0, confidence = 0.012

 70 75  0  0  1  0  0  0  0  0999 V2000
    3.3558   -0.1154    0.9908 N   0  0  0  0  0  0  0  0  0  0  0  0
    0.3828    0.2194    1.0792 C   0  0  2  0  0  3  0  0  0  0  0  0
   -1.8918   -0.0572    0.1300 B   0  0  0  0  0  0  0  0  0  0  0  0
    0.8302    0.4003   -0.0834 O   0  0  0  0  0  1  0  0  0  0  0  0
   -0.8550   -0.0565    1.2937 O   0  0  0  0  0  0  0  0  0  0  0  0
    2.6535    0.1957    2.2505 C   0  0  0  0  0  0  0  0  0  0  0  0
    3.3756    0.2632    3.4541 C   0  0  0  0  0  0  0  0  0  0  0  0
    2.7242    0.5249    4.6691 C   0  0  0  0  0  0  0  0  0  0  0  0
    1.3345    0.7006    4.7047 C   0  0  0  0  0  0  0  0  0  0  0  0
    0.6007    0.5884    3.5185 C   0  0  0  0  0  0  0  0  0  0  0  0
    1.2409    0.3322    2.2896 C   0  0  0  0  0  0  0  0  0  0  0  0
    4.7894    0.1924    1.0510 C   0  0  0  0  0  0  0  0  0  0  0  0
    5.7689   -0.7972    0.8852 C   0  0  0  0  0  0  0  0  0  0  0  0
    7.1300   -0.4453    0.9411 C   0  0  0  0  0  0  0  0  0  0  0  0
    7.5159    0.8781    1.1857 C   0  0  0  0  0  0  0  0  0  0  0  0
    6.5274    1.8609    1.3787 C   0  0  0  0  0  0  0  0  0  0  0  0
    5.1732    1.5239    1.3069 C   0  0  0  0  0  0  0  0  0  0  0  0
    3.0448   -1.4639    0.4857 C   0  0  0  0  0  0  0  0  0  0  0  0
    2.5068   -2.4573    1.3171 C   0  0  0  0  0  0  0  0  0  0  0  0
    2.1803   -3.7132    0.7773 C   0  0  0  0  0  0  0  0  0  0  0  0
    2.4008   -3.9834   -0.5788 C   0  0  0  0  0  0  0  0  0  0  0  0
    2.9606   -2.9921   -1.4028 C   0  0  0  0  0  0  0  0  0  0  0  0
    3.2821   -1.7374   -0.8749 C   0  0  0  0  0  0  0  0  0  0  0  0
   -1.9939    1.4312   -0.5590 C   0  0  0  0  0  0  0  0  0  0  0  0
   -3.5321    0.5122   -2.1200 F   0  0  0  0  0  0  0  0  0  0  0  0
   -2.8531    1.5817   -1.6617 C   0  0  0  0  0  0  0  0  0  0  0  0
   -3.8468    2.8581   -3.4175 F   0  0  0  0  0  0  0  0  0  0  0  0
   -3.0266    2.7848   -2.3620 C   0  0  0  0  0  0  0  0  0  0  0  0
   -2.4600    5.0849   -2.5953 F   0  0  0  0  0  0  0  0  0  0  0  0
   -2.3232    3.9258   -1.9415 C   0  0  0  0  0  0  0  0  0  0  0  0
   -0.7735    4.9062   -0.4276 F   0  0  0  0  0  0  0  0  0  0  0  0
   -1.4733    3.8329   -0.8310 C   0  0  0  0  0  0  0  0  0  0  0  0
   -0.5272    2.6391    0.9276 F   0  0  0  0  0  0  0  0  0  0  0  0
   -1.3518    2.6091   -0.1496 C   0  0  0  0  0  0  0  0  0  0  0  0
   -1.3610   -1.2484   -0.8728 C   0  0  0  0  0  0  0  0  0  0  0  0
   -1.7987   -2.8524    0.8385 F   0  0  0  0  0  0  0  0  0  0  0  0
   -1.3164   -2.5674   -0.3867 C   0  0  0  0  0  0  0  0  0  0  0  0
   -0.7069   -4.8722   -0.5594 F   0  0  0  0  0  0  0  0  0  0  0  0
   -0.7607   -3.6428   -1.0964 C   0  0  0  0  0  0  0  0  0  0  0  0
    0.4199   -4.4025   -3.0183 F   0  0  0  0  0  0  0  0  0  0  0  0
   -0.1835   -3.4070   -2.3510 C   0  0  0  0  0  0  0  0  0  0  0  0
    0.4388   -1.8551   -4.0372 F   0  0  0  0  0  0  0  0  0  0  0  0
   -0.1842   -2.1076   -2.8707 C   0  0  0  0  0  0  0  0  0  0  0  0
   -0.6606    0.1577   -2.6976 F   0  0  0  0  0  0  0  0  0  0  0  0
   -0.7642   -1.0653   -2.1296 C   0  0  0  0  0  0  0  0  0  0  0  0
   -3.3270   -0.3437    0.8624 C   0  0  0  0  0  0  0  0  0  0  0  0
   -4.1267   -1.9467   -0.7260 F   0  0  0  0  0  0  0  0  0  0  0  0
   -4.3197   -1.2161    0.3875 C   0  0  0  0  0  0  0  0  0  0  0  0
   -6.4680   -2.2452    0.5416 F   0  0  0  0  0  0  0  0  0  0  0  0
   -5.5580   -1.3925    1.0304 C   0  0  0  0  0  0  0  0  0  0  0  0
   -7.0131   -0.8217    2.8218 F   0  0  0  0  0  0  0  0  0  0  0  0
   -5.8408   -0.6654    2.1965 C   0  0  0  0  0  0  0  0  0  0  0  0
   -5.1455    0.9338    3.8113 F   0  0  0  0  0  0  0  0  0  0  0  0
   -4.8831    0.2272    2.7026 C   0  0  0  0  0  0  0  0  0  0  0  0
   -2.8022    1.2828    2.5390 F   0  0  0  0  0  0  0  0  0  0  0  0
   -3.6643    0.3758    2.0217 C   0  0  0  0  0  0  0  0  0  0  0  0
    4.4618    0.1071    3.4444 H   0  0  0  0  0  0  0  0  0  0  0  0
    3.3174    0.5826    5.5940 H   0  0  0  0  0  0  0  0  0  0  0  0
    0.8207    0.9138    5.6532 H   0  0  0  0  0  0  0  0  0  0  0  0
   -0.4918    0.7097    3.5054 H   0  0  0  0  0  0  0  0  0  0  0  0
    5.4763   -1.8407    0.7104 H   0  0  0  0  0  0  0  0  0  0  0  0
    7.8914   -1.2268    0.7991 H   0  0  0  0  0  0  0  0  0  0  0  0
    8.5813    1.1474    1.2306 H   0  0  0  0  0  0  0  0  0  0  0  0
    6.8150    2.9039    1.5791 H   0  0  0  0  0  0  0  0  0  0  0  0
    4.3981    2.2895    1.4566 H   0  0  0  0  0  0  0  0  0  0  0  0
    2.3229   -2.2527    2.3801 H   0  0  0  0  0  0  0  0  0  0  0  0
    1.7248   -4.4772    1.4240 H   0  0  0  0  0  0  0  0  0  0  0  0
    2.1045   -4.9517   -1.0055 H   0  0  0  0  0  0  0  0  0  0  0  0
    3.1095   -3.1861   -2.4752 H   0  0  0  0  0  0  0  0  0  0  0  0
    3.7234   -0.9581   -1.5123 H   0  0  0  0  0  0  0  0  0  0  0  0
  1 12  1  0  0  0  0
  1  6  1  0  0  0  0
  2  4  1  1  0  0  0
  2  5  1  0  0  0  0
  2 11  1  0  0  0  0
  3 46  1  0  0  0  0
  3  5  1  0  0  0  0
  6 11  2  0  0  0  0
  6  7  1  0  0  0  0
  7  8  2  0  0  0  0
  8  9  1  0  0  0  0
  8 58  1  0  0  0  0
  9 59  1  0  0  0  0
 10  9  2  0  0  0  0
 11 10  1  0  0  0  0
 12 17  1  0  0  0  0
 13 14  1  0  0  0  0
 13 12  2  0  0  0  0
 14 15  2  0  0  0  0
 15 63  1  0  0  0  0
 15 16  1  0  0  0  0
 16 64  1  0  0  0  0
 17 16  2  0  0  0  0
 17 65  1  0  0  0  0
 18  1  1  0  0  0  0
 18 19  1  0  0  0  0
 19 66  1  0  0  0  0
 20 19  2  0  0  0  0
 20 67  1  0  0  0  0
 21 20  1  0  0  0  0
 22 23  1  0  0  0  0
 22 21  2  0  0  0  0
 23 18  2  0  0  0  0
 24 34  1  0  0  0  0
 24  3  1  0  0  0  0
 25 26  1  0  0  0  0
 26 24  2  0  0  0  0
 27 28  1  0  0  0  0
 28 30  2  0  0  0  0
 28 26  1  0  0  0  0
 29 30  1  0  0  0  0
 30 32  1  0  0  0  0
 32 31  1  0  0  0  0
 32 34  2  0  0  0  0
 34 33  1  0  0  0  0
 35 37  1  0  0  0  0
 35  3  1  0  0  0  0
 37 36  1  0  0  0  0
 39 38  1  0  0  0  0
 39 37  2  0  0  0  0
 40 41  1  0  0  0  0
 41 39  1  0  0  0  0
 42 43  1  0  0  0  0
 43 41  2  0  0  0  0
 43 45  1  0  0  0  0
 44 45  1  0  0  0  0
 45 35  2  0  0  0  0
 46 56  1  0  0  0  0
 47 48  1  0  0  0  0
 48 46  2  0  0  0  0
 48 50  1  0  0  0  0
 49 50  1  0  0  0  0
 50 52  2  0  0  0  0
 52 54  1  0  0  0  0
 52 51  1  0  0  0  0
 54 53  1  0  0  0  0
 56 55  1  0  0  0  0
 56 54  2  0  0  0  0
 57  7  1  0  0  0  0
 60 10  1  0  0  0  0
 61 13  1  0  0  0  0
 62 14  1  0  0  0  0
 68 21  1  0  0  0  0
 69 22  1  0  0  0  0
 70 23  1  0  0  0  0
M  END
