1
 OpenBabel05122313063D

 34 35  0  0  1  0  0  0  0  0999 V2000
   -1.7179    0.5780   -0.7303 O   0  0  0  0  0  1  0  0  0  0  0  0
   -3.4607   -1.4082   -0.3185 N   0  0  0  0  0  0  0  0  0  0  0  0
   -2.4524   -1.6810   -0.3309 H   0  0  0  0  0  0  0  0  0  0  0  0
   -4.4980   -2.2630   -0.2909 C   0  0  0  0  0  0  0  0  0  0  0  0
   -5.7044   -1.5052   -0.3528 C   0  0  0  0  0  0  0  0  0  0  0  0
   -5.3448   -0.1397   -0.4033 C   0  0  0  0  0  0  0  0  0  0  0  0
   -3.9090   -0.0916   -0.3661 C   0  0  0  0  0  0  0  0  0  0  0  0
   -4.3009   -3.7387   -0.2073 C   0  0  0  0  0  0  0  0  0  0  0  0
   -3.2260   -3.9946   -0.2663 H   0  0  0  0  0  0  0  0  0  0  0  0
   -4.7046   -4.1431    0.7445 H   0  0  0  0  0  0  0  0  0  0  0  0
   -4.8326   -4.2588   -1.0306 H   0  0  0  0  0  0  0  0  0  0  0  0
   -7.0921   -2.0784   -0.3305 C   0  0  0  0  0  0  0  0  0  0  0  0
   -7.7453   -1.4937   -1.0137 H   0  0  0  0  0  0  0  0  0  0  0  0
   -7.0726   -3.1095   -0.7426 H   0  0  0  0  0  0  0  0  0  0  0  0
   -7.7188   -2.1002    1.0736 C   0  0  0  0  0  0  0  0  0  0  0  0
   -7.7875   -1.0768    1.4948 H   0  0  0  0  0  0  0  0  0  0  0  0
   -8.7407   -2.5304    1.0536 H   0  0  0  0  0  0  0  0  0  0  0  0
   -7.1073   -2.7033    1.7751 H   0  0  0  0  0  0  0  0  0  0  0  0
   -6.3154    0.9887   -0.5723 C   0  0  0  0  0  0  0  0  0  0  0  0
   -6.7158    1.3491    0.3988 H   0  0  0  0  0  0  0  0  0  0  0  0
   -5.8603    1.8604   -1.0777 H   0  0  0  0  0  0  0  0  0  0  0  0
   -7.1877    0.6562   -1.1704 H   0  0  0  0  0  0  0  0  0  0  0  0
   -2.9226    0.9302   -0.4638 C   0  0  1  0  0  3  0  0  0  0  0  0
   -3.1614    2.3725   -0.2641 C   0  0  0  0  0  0  0  0  0  0  0  0
   -4.0935    2.8500    0.6830 C   0  0  0  0  0  0  0  0  0  0  0  0
   -4.6659    2.1330    1.2870 H   0  0  0  0  0  0  0  0  0  0  0  0
   -4.2353    4.2265    0.8947 C   0  0  0  0  0  0  0  0  0  0  0  0
   -4.9502    4.5942    1.6460 H   0  0  0  0  0  0  0  0  0  0  0  0
   -3.4512    5.1346    0.1633 C   0  0  0  0  0  0  0  0  0  0  0  0
   -3.5669    6.2166    0.3293 H   0  0  0  0  0  0  0  0  0  0  0  0
   -2.5014    4.6634   -0.7592 C   0  0  0  0  0  0  0  0  0  0  0  0
   -1.8687    5.3741   -1.3114 H   0  0  0  0  0  0  0  0  0  0  0  0
   -2.3410    3.2891   -0.9617 C   0  0  0  0  0  0  0  0  0  0  0  0
   -1.5752    2.8983   -1.6467 H   0  0  0  0  0  0  0  0  0  0  0  0
  2  4  1  0  0  0  0
  3  2  1  0  0  0  0
  4  8  1  0  0  0  0
  5 12  1  0  0  0  0
  5  4  2  0  0  0  0
  6  7  2  0  0  0  0
  6  5  1  0  0  0  0
  7  2  1  0  0  0  0
  8 10  1  0  0  0  0
  9  8  1  0  0  0  0
 11  8  1  0  0  0  0
 12 15  1  0  0  0  0
 13 12  1  0  0  0  0
 14 12  1  0  0  0  0
 15 16  1  0  0  0  0
 15 18  1  0  0  0  0
 17 15  1  0  0  0  0
 19  6  1  0  0  0  0
 19 20  1  0  0  0  0
 21 19  1  0  0  0  0
 22 19  1  0  0  0  0
 23  1  1  1  0  0  0
 23  7  1  0  0  0  0
 23 24  1  0  0  0  0
 24 25  1  0  0  0  0
 25 27  2  0  0  0  0
 25 26  1  0  0  0  0
 27 28  1  0  0  0  0
 29 30  1  0  0  0  0
 29 27  1  0  0  0  0
 31 29  2  0  0  0  0
 32 31  1  0  0  0  0
 33 31  1  0  0  0  0
 33 24  2  0  0  0  0
 34 33  1  0  0  0  0
M  END
