1
 OpenBabel05122313063D

 11 10  0  0  1  0  0  0  0  0999 V2000
    0.2541   -1.5629    0.7491 O   0  5  0  0  0  0  0  0  0  0  0  0
    0.1443   -3.1311    2.3167 O   0  0  0  0  0  0  0  0  0  0  0  0
   -0.7804    0.3270    2.4299 O   0  0  0  0  0  0  0  0  0  0  0  0
   -1.2470    0.8750    3.0888 H   0  0  0  0  0  0  0  0  0  0  0  0
   -0.0534   -1.9757    1.9610 C   0  0  0  0  0  0  0  0  0  0  0  0
   -0.7041   -1.0014    2.9660 C   0  0  2  0  0  0  0  0  0  0  0  0
   -0.0282   -1.0138    3.8530 H   0  0  0  0  0  0  0  0  0  0  0  0
   -2.0794   -1.5253    3.3771 C   0  0  0  0  0  0  0  0  0  0  0  0
   -2.5199   -0.9038    4.1844 H   0  0  0  0  0  0  0  0  0  0  0  0
   -1.9837   -2.5622    3.7507 H   0  0  0  0  0  0  0  0  0  0  0  0
   -2.7727   -1.5248    2.5112 H   0  0  0  0  0  0  0  0  0  0  0  0
  1  5  1  0  0  0  0
  3  6  1  0  0  0  0
  3  4  1  0  0  0  0
  5  2  2  0  0  0  0
  5  6  1  0  0  0  0
  6  8  1  0  0  0  0
  6  7  1  1  0  0  0
  8 10  1  0  0  0  0
  8  9  1  0  0  0  0
 11  8  1  0  0  0  0
M  CHG  1   1  -1
M  END
