4
 OpenBabel05122313063D

 32 32  0  0  1  0  0  0  0  0999 V2000
   -3.9113    0.0681   -1.3024 O   0  0  0  0  0  0  0  0  0  0  0  0
   -4.5630   -2.1700   -1.0008 O   0  0  0  0  0  0  0  0  0  0  0  0
   -1.1793   -0.8650   -1.0328 O   0  0  0  0  0  0  0  0  0  0  0  0
   -1.3187   -1.3922    1.5922 O   0  0  0  0  0  1  0  0  0  0  0  0
   -3.5681    0.4889    2.3022 O   0  0  0  0  0  0  0  0  0  0  0  0
   -3.3801    2.8401   -0.2388 O   0  0  0  0  0  0  0  0  0  0  0  0
   -3.5528   -1.2884   -1.4194 C   0  0  2  0  0  0  0  0  0  0  0  0
   -2.3154   -1.6187   -0.5780 C   0  0  2  0  0  0  0  0  0  0  0  0
   -2.1031   -2.7061   -0.6367 H   0  0  0  0  0  0  0  0  0  0  0  0
   -2.5297   -1.2318    0.8901 C   0  0  2  0  0  0  0  0  0  0  0  0
   -3.0452    0.2198    1.0165 C   0  0  1  0  0  0  0  0  0  0  0  0
   -2.2068    0.9087    0.7791 H   0  0  0  0  0  0  0  0  0  0  0  0
   -4.1954    0.5075    0.0340 C   0  0  1  0  0  0  0  0  0  0  0  0
   -5.1018   -0.0164    0.4189 H   0  0  0  0  0  0  0  0  0  0  0  0
   -4.5004    2.0073   -0.0278 C   0  0  0  0  0  0  0  0  0  0  0  0
   -5.2758    2.1704   -0.8163 H   0  0  0  0  0  0  0  0  0  0  0  0
   -4.9211    2.2987    0.9544 H   0  0  0  0  0  0  0  0  0  0  0  0
   -5.7355   -2.1146   -1.7970 C   0  0  0  0  0  0  0  0  0  0  0  0
   -6.4542   -2.8404   -1.3725 H   0  0  0  0  0  0  0  0  0  0  0  0
   -5.5202   -2.3942   -2.8552 H   0  0  0  0  0  0  0  0  0  0  0  0
   -6.1911   -1.1002   -1.7922 H   0  0  0  0  0  0  0  0  0  0  0  0
   -2.6031    0.8045    3.2919 C   0  0  0  0  0  0  0  0  0  0  0  0
   -3.1594    1.1389    4.1894 H   0  0  0  0  0  0  0  0  0  0  0  0
   -1.9253    1.6236    2.9587 H   0  0  0  0  0  0  0  0  0  0  0  0
   -1.9725   -0.0722    3.5558 H   0  0  0  0  0  0  0  0  0  0  0  0
   -2.8452    2.8187   -1.5522 C   0  0  0  0  0  0  0  0  0  0  0  0
   -2.1578    3.6830   -1.6367 H   0  0  0  0  0  0  0  0  0  0  0  0
   -3.6488    2.9171   -2.3201 H   0  0  0  0  0  0  0  0  0  0  0  0
   -2.2792    1.8861   -1.7655 H   0  0  0  0  0  0  0  0  0  0  0  0
   -3.3300   -1.4205   -2.5065 H   0  0  0  0  0  0  0  0  0  0  0  0
   -3.2966   -1.9048    1.3324 H   0  0  0  0  0  0  0  0  0  0  0  0
   -0.6677   -1.4421   -1.6295 H   0  0  0  0  0  0  0  0  0  0  0  0
  1 13  1  0  0  0  0
  3  8  1  0  0  0  0
  5 22  1  0  0  0  0
  6 15  1  0  0  0  0
  7 30  1  6  0  0  0
  7  1  1  0  0  0  0
  7  2  1  0  0  0  0
  7  8  1  0  0  0  0
  8  9  1  6  0  0  0
  8 10  1  0  0  0  0
 10 11  1  0  0  0  0
 10 31  1  1  0  0  0
 10  4  1  0  0  0  0
 11 12  1  6  0  0  0
 11  5  1  0  0  0  0
 13 14  1  1  0  0  0
 13 11  1  0  0  0  0
 15 13  1  0  0  0  0
 15 17  1  0  0  0  0
 16 15  1  0  0  0  0
 18 21  1  0  0  0  0
 18 19  1  0  0  0  0
 18  2  1  0  0  0  0
 20 18  1  0  0  0  0
 22 25  1  0  0  0  0
 22 23  1  0  0  0  0
 24 22  1  0  0  0  0
 26  6  1  0  0  0  0
 27 26  1  0  0  0  0
 28 26  1  0  0  0  0
 29 26  1  0  0  0  0
 32  3  1  0  0  0  0
M  END
