2
 OpenBabel05122313063D

 38 40  0  0  0  0  0  0  0  0999 V2000
   -0.6895    0.6873    0.1702 P   0  0  0  0  0  0  0  0  0  0  0  0
    1.8318   -0.5128   -0.4111 O   0  5  0  0  0  0  0  0  0  0  0  0
    1.9697    0.6402    0.2036 C   0  0  0  0  0  0  0  0  0  0  0  0
    0.8797    1.4034    0.5950 C   0  0  0  0  0  0  0  0  0  0  0  0
    0.9666    2.4217    0.9961 H   0  0  0  0  0  0  0  0  0  0  0  0
   -1.7625    0.5828    1.6599 C   0  0  0  0  0  0  0  0  0  0  0  0
   -3.0993    0.1495    1.5249 C   0  0  0  0  0  0  0  0  0  0  0  0
   -3.5130   -0.0494    0.5235 H   0  0  0  0  0  0  0  0  0  0  0  0
   -3.8995   -0.0258    2.6628 C   0  0  0  0  0  0  0  0  0  0  0  0
   -4.9414   -0.3628    2.5509 H   0  0  0  0  0  0  0  0  0  0  0  0
   -3.3744    0.2265    3.9422 C   0  0  0  0  0  0  0  0  0  0  0  0
   -4.0043    0.0870    4.8338 H   0  0  0  0  0  0  0  0  0  0  0  0
   -2.0452    0.6566    4.0795 C   0  0  0  0  0  0  0  0  0  0  0  0
   -1.6308    0.8576    5.0794 H   0  0  0  0  0  0  0  0  0  0  0  0
   -1.2396    0.8334    2.9428 C   0  0  0  0  0  0  0  0  0  0  0  0
   -0.1913    1.1578    3.0398 H   0  0  0  0  0  0  0  0  0  0  0  0
   -1.5707    1.8974   -0.9098 C   0  0  0  0  0  0  0  0  0  0  0  0
   -2.4927    2.8352   -0.4055 C   0  0  0  0  0  0  0  0  0  0  0  0
   -2.7681    2.8201    0.6598 H   0  0  0  0  0  0  0  0  0  0  0  0
   -3.0646    3.7886   -1.2629 C   0  0  0  0  0  0  0  0  0  0  0  0
   -3.7864    4.5176   -0.8637 H   0  0  0  0  0  0  0  0  0  0  0  0
   -2.7195    3.8119   -2.6231 C   0  0  0  0  0  0  0  0  0  0  0  0
   -3.1729    4.5576   -3.2939 H   0  0  0  0  0  0  0  0  0  0  0  0
   -1.7971    2.8800   -3.1278 C   0  0  0  0  0  0  0  0  0  0  0  0
   -1.5260    2.8919   -4.1944 H   0  0  0  0  0  0  0  0  0  0  0  0
   -1.2246    1.9263   -2.2758 C   0  0  0  0  0  0  0  0  0  0  0  0
   -0.5057    1.1874   -2.6647 H   0  0  0  0  0  0  0  0  0  0  0  0
    3.3832    1.0634    0.4302 C   0  0  0  0  0  0  0  0  0  0  0  0
    3.7224    2.1354    1.2850 C   0  0  0  0  0  0  0  0  0  0  0  0
    2.9308    2.6808    1.8190 H   0  0  0  0  0  0  0  0  0  0  0  0
    5.0610    2.5000    1.4758 C   0  0  0  0  0  0  0  0  0  0  0  0
    5.3082    3.3360    2.1479 H   0  0  0  0  0  0  0  0  0  0  0  0
    6.0860    1.7993    0.8176 C   0  0  0  0  0  0  0  0  0  0  0  0
    7.1375    2.0875    0.9686 H   0  0  0  0  0  0  0  0  0  0  0  0
    5.7604    0.7288   -0.0303 C   0  0  0  0  0  0  0  0  0  0  0  0
    6.5578    0.1755   -0.5499 H   0  0  0  0  0  0  0  0  0  0  0  0
    4.4216    0.3621   -0.2211 C   0  0  0  0  0  0  0  0  0  0  0  0
    4.1481   -0.4717   -0.8829 H   0  0  0  0  0  0  0  0  0  0  0  0
  1  4  1  0  0  0  0
  1  6  1  0  0  0  0
  2  3  1  0  0  0  0
  3 28  1  0  0  0  0
  3  4  2  0  0  0  0
  4  5  1  0  0  0  0
  6 15  1  0  0  0  0
  7  6  2  0  0  0  0
  7  9  1  0  0  0  0
  8  7  1  0  0  0  0
  9 11  2  0  0  0  0
 10  9  1  0  0  0  0
 11 13  1  0  0  0  0
 11 12  1  0  0  0  0
 13 14  1  0  0  0  0
 15 16  1  0  0  0  0
 15 13  2  0  0  0  0
 17 18  1  0  0  0  0
 17  1  1  0  0  0  0
 18 19  1  0  0  0  0
 20 21  1  0  0  0  0
 20 18  2  0  0  0  0
 22 20  1  0  0  0  0
 23 22  1  0  0  0  0
 24 22  2  0  0  0  0
 24 26  1  0  0  0  0
 25 24  1  0  0  0  0
 26 17  2  0  0  0  0
 27 26  1  0  0  0  0
 28 29  1  0  0  0  0
 29 31  2  0  0  0  0
 29 30  1  0  0  0  0
 31 32  1  0  0  0  0
 33 34  1  0  0  0  0
 33 31  1  0  0  0  0
 35 33  2  0  0  0  0
 36 35  1  0  0  0  0
 37 35  1  0  0  0  0
 37 28  2  0  0  0  0
 38 37  1  0  0  0  0
M  CHG  1   2  -1
M  END
