1
 OpenBabel05122313063D

 20 19  0  0  0  0  0  0  0  0999 V2000
    0.5446   -1.4879    0.1447 O   0  0  0  0  0  1  0  0  0  0  0  0
    1.7297   -1.6636   -0.5663 C   0  0  0  0  0  0  0  0  0  0  0  0
    1.7718   -1.0469   -1.5003 H   0  0  0  0  0  0  0  0  0  0  0  0
    1.8426   -2.7252   -0.9242 H   0  0  0  0  0  0  0  0  0  0  0  0
    2.9647   -1.3178    0.2757 C   0  0  0  0  0  0  0  0  0  0  0  0
    2.8748   -0.2592    0.6047 H   0  0  0  0  0  0  0  0  0  0  0  0
    2.9366   -1.9350    1.2005 H   0  0  0  0  0  0  0  0  0  0  0  0
    4.2874   -1.5016   -0.4721 C   0  0  0  0  0  0  0  0  0  0  0  0
    4.2111   -0.9932   -1.4588 H   0  0  0  0  0  0  0  0  0  0  0  0
    4.4380   -2.5795   -0.7055 H   0  0  0  0  0  0  0  0  0  0  0  0
    5.5163   -0.9436    0.2612 C   0  0  0  0  0  0  0  0  0  0  0  0
    6.4198   -1.1113   -0.3677 H   0  0  0  0  0  0  0  0  0  0  0  0
    5.4043    0.1602    0.3456 H   0  0  0  0  0  0  0  0  0  0  0  0
    5.7720   -1.5222    1.6614 C   0  0  0  0  0  0  0  0  0  0  0  0
    6.6636   -1.0189    2.0952 H   0  0  0  0  0  0  0  0  0  0  0  0
    4.9253   -1.2559    2.3315 H   0  0  0  0  0  0  0  0  0  0  0  0
    5.9829   -3.0376    1.6882 C   0  0  0  0  0  0  0  0  0  0  0  0
    5.0776   -3.5845    1.3537 H   0  0  0  0  0  0  0  0  0  0  0  0
    6.2265   -3.3975    2.7085 H   0  0  0  0  0  0  0  0  0  0  0  0
    6.8162   -3.3405    1.0190 H   0  0  0  0  0  0  0  0  0  0  0  0
  2  1  1  0  0  0  0
  2  5  1  0  0  0  0
  3  2  1  0  0  0  0
  4  2  1  0  0  0  0
  5  6  1  0  0  0  0
  5  7  1  0  0  0  0
  8 11  1  0  0  0  0
  8  5  1  0  0  0  0
  9  8  1  0  0  0  0
 10  8  1  0  0  0  0
 11 13  1  0  0  0  0
 11 14  1  0  0  0  0
 12 11  1  0  0  0  0
 14 17  1  0  0  0  0
 14 15  1  0  0  0  0
 14 16  1  0  0  0  0
 17 19  1  0  0  0  0
 18 17  1  0  0  0  0
 20 17  1  0  0  0  0
M  END
