1
 OpenBabel05122313063D

 21 21  0  0  0  0  0  0  0  0999 V2000
    0.1841   -1.5596    0.3911 O   0  0  0  0  0  1  0  0  0  0  0  0
    0.7666   -2.3401   -0.6341 C   0  0  0  0  0  0  0  0  0  0  0  0
    0.4305   -1.7739   -2.0190 C   0  0  0  0  0  0  0  0  0  0  0  0
   -0.6689   -1.7610   -2.1531 H   0  0  0  0  0  0  0  0  0  0  0  0
    0.8568   -2.3850   -2.8386 H   0  0  0  0  0  0  0  0  0  0  0  0
    0.8061   -0.7355   -2.1340 H   0  0  0  0  0  0  0  0  0  0  0  0
    0.2449   -3.7810   -0.4935 C   0  0  0  0  0  0  0  0  0  0  0  0
    0.4638   -4.1768    0.5157 H   0  0  0  0  0  0  0  0  0  0  0  0
    0.7178   -4.4431   -1.2452 H   0  0  0  0  0  0  0  0  0  0  0  0
   -0.8534   -3.7944   -0.6454 H   0  0  0  0  0  0  0  0  0  0  0  0
    2.2778   -2.2741   -0.3125 C   0  0  0  0  0  0  0  0  0  0  0  0
    2.6897   -2.5076    1.0224 C   0  0  0  0  0  0  0  0  0  0  0  0
    1.9242   -2.6691    1.7942 H   0  0  0  0  0  0  0  0  0  0  0  0
    4.0489   -2.5289    1.3578 C   0  0  0  0  0  0  0  0  0  0  0  0
    4.3530   -2.7298    2.3961 H   0  0  0  0  0  0  0  0  0  0  0  0
    5.0194   -2.2918    0.3704 C   0  0  0  0  0  0  0  0  0  0  0  0
    6.0893   -2.3145    0.6270 H   0  0  0  0  0  0  0  0  0  0  0  0
    4.6164   -2.0270   -0.9515 C   0  0  0  0  0  0  0  0  0  0  0  0
    5.3717   -1.8570   -1.7340 H   0  0  0  0  0  0  0  0  0  0  0  0
    3.2548   -2.0037   -1.2886 C   0  0  0  0  0  0  0  0  0  0  0  0
    2.9650   -1.8069   -2.3296 H   0  0  0  0  0  0  0  0  0  0  0  0
  2  7  1  0  0  0  0
  2 11  1  0  0  0  0
  2  1  1  0  0  0  0
  3  2  1  0  0  0  0
  4  3  1  0  0  0  0
  5  3  1  0  0  0  0
  6  3  1  0  0  0  0
  7  8  1  0  0  0  0
  9  7  1  0  0  0  0
 10  7  1  0  0  0  0
 11 12  1  0  0  0  0
 12 14  2  0  0  0  0
 12 13  1  0  0  0  0
 14 15  1  0  0  0  0
 16 17  1  0  0  0  0
 16 14  1  0  0  0  0
 18 16  2  0  0  0  0
 19 18  1  0  0  0  0
 20 18  1  0  0  0  0
 20 11  2  0  0  0  0
 21 20  1  0  0  0  0
M  END
