2
 OpenBabel05122313063D

 12 12  0  0  0  0  0  0  0  0999 V2000
   -1.1299   -1.6873   -0.0001 S   0  0  0  0  0  0  0  0  0  0  0  0
   -1.1138    1.2359    0.0001 O   0  5  0  0  0  0  0  0  0  0  0  0
   -2.3442    0.7086    0.0001 N   0  0  0  0  0  0  0  0  0  0  0  0
   -2.5303   -0.6621   -0.0000 C   0  0  0  0  0  0  0  0  0  0  0  0
   -4.9440   -0.2568   -0.0000 C   0  0  0  0  0  0  0  0  0  0  0  0
   -3.3911    1.5890    0.0001 C   0  0  0  0  0  0  0  0  0  0  0  0
   -3.8660   -1.1343   -0.0001 C   0  0  0  0  0  0  0  0  0  0  0  0
   -4.6988    1.1364    0.0001 C   0  0  0  0  0  0  0  0  0  0  0  0
   -4.0093   -2.2242   -0.0002 H   0  0  0  0  0  0  0  0  0  0  0  0
   -5.9736   -0.6427   -0.0000 H   0  0  0  0  0  0  0  0  0  0  0  0
   -5.5173    1.8687    0.0002 H   0  0  0  0  0  0  0  0  0  0  0  0
   -3.0812    2.6424    0.0002 H   0  0  0  0  0  0  0  0  0  0  0  0
  1  4  2  0  0  0  0
  3  2  1  0  0  0  0
  3  6  1  0  0  0  0
  4  3  1  0  0  0  0
  5  8  1  0  0  0  0
  6 12  1  0  0  0  0
  7  4  1  0  0  0  0
  7  5  2  0  0  0  0
  8  6  2  0  0  0  0
  8 11  1  0  0  0  0
  9  7  1  0  0  0  0
 10  5  1  0  0  0  0
M  CHG  1   2  -1
M  END
