5
 OpenBabel05122313063D

 53 58  0  0  0  0  0  0  0  0999 V2000
   -0.3038    0.7268   -0.2005 P   0  0  0  0  0  0  0  0  0  0  0  0
   -2.5352    2.6693    1.2160 S   0  0  0  0  0  0  0  0  0  0  0  0
   -1.7021    2.1078    2.3247 O   0  0  0  0  0  1  0  0  0  0  0  0
   -3.4997    3.7343    1.5497 O   0  0  0  0  0  1  0  0  0  0  0  0
   -3.2608    1.5453    0.4065 O   0  0  0  0  0  1  0  0  0  0  0  0
    0.8651    0.7106    1.2582 C   0  0  0  0  0  0  0  0  0  0  0  0
    0.3919    1.3758    2.0047 H   0  0  0  0  0  0  0  0  0  0  0  0
    0.8474   -0.3266    1.6448 H   0  0  0  0  0  0  0  0  0  0  0  0
    2.2482    1.1246    0.8574 C   0  0  0  0  0  0  0  0  0  0  0  0
    2.6990    2.4489    1.1255 C   0  0  0  0  0  0  0  0  0  0  0  0
    2.0280    3.1346    1.6648 H   0  0  0  0  0  0  0  0  0  0  0  0
    3.9536    2.8678    0.7209 C   0  0  0  0  0  0  0  0  0  0  0  0
    4.2975    3.8903    0.9411 H   0  0  0  0  0  0  0  0  0  0  0  0
    4.8168    1.9921    0.0014 C   0  0  0  0  0  0  0  0  0  0  0  0
    6.1038    2.4120   -0.4471 C   0  0  0  0  0  0  0  0  0  0  0  0
    6.4355    3.4341   -0.2061 H   0  0  0  0  0  0  0  0  0  0  0  0
    6.9187    1.5603   -1.1763 C   0  0  0  0  0  0  0  0  0  0  0  0
    7.9088    1.8985   -1.5174 H   0  0  0  0  0  0  0  0  0  0  0  0
    6.4703    0.2504   -1.4938 C   0  0  0  0  0  0  0  0  0  0  0  0
    7.1135   -0.4179   -2.0860 H   0  0  0  0  0  0  0  0  0  0  0  0
    5.2270   -0.1922   -1.0669 C   0  0  0  0  0  0  0  0  0  0  0  0
    4.8873   -1.2055   -1.3229 H   0  0  0  0  0  0  0  0  0  0  0  0
    4.3688    0.6518   -0.2981 C   0  0  0  0  0  0  0  0  0  0  0  0
    3.0730    0.2267    0.1605 C   0  0  0  0  0  0  0  0  0  0  0  0
   -0.4039    2.5205   -0.6238 C   0  0  0  0  0  0  0  0  0  0  0  0
    0.4751    3.1312   -1.5394 C   0  0  0  0  0  0  0  0  0  0  0  0
    1.2406    2.5385   -2.0574 H   0  0  0  0  0  0  0  0  0  0  0  0
    0.3980    4.5056   -1.8119 C   0  0  0  0  0  0  0  0  0  0  0  0
    1.1011    4.9538   -2.5297 H   0  0  0  0  0  0  0  0  0  0  0  0
   -0.5683    5.2978   -1.1773 C   0  0  0  0  0  0  0  0  0  0  0  0
   -0.6360    6.3744   -1.3946 H   0  0  0  0  0  0  0  0  0  0  0  0
   -1.4560    4.7113   -0.2644 C   0  0  0  0  0  0  0  0  0  0  0  0
   -2.2369    5.2922    0.2473 H   0  0  0  0  0  0  0  0  0  0  0  0
   -1.3660    3.3411    0.0123 C   0  0  0  0  0  0  0  0  0  0  0  0
    0.7541   -0.0343   -1.5407 C   0  0  0  0  0  0  0  0  0  0  0  0
    0.0563   -0.2429   -2.3738 H   0  0  0  0  0  0  0  0  0  0  0  0
    1.4969    0.7191   -1.8638 H   0  0  0  0  0  0  0  0  0  0  0  0
    1.4592   -1.2619   -1.0350 C   0  0  0  0  0  0  0  0  0  0  0  0
    1.0018   -2.5541   -1.4203 C   0  0  0  0  0  0  0  0  0  0  0  0
    0.1792   -2.6194   -2.1485 H   0  0  0  0  0  0  0  0  0  0  0  0
    1.5867   -3.7020   -0.9140 C   0  0  0  0  0  0  0  0  0  0  0  0
    1.2303   -4.6957   -1.2273 H   0  0  0  0  0  0  0  0  0  0  0  0
    2.6560   -3.6179    0.0240 C   0  0  0  0  0  0  0  0  0  0  0  0
    3.2495   -4.7827    0.5941 C   0  0  0  0  0  0  0  0  0  0  0  0
    2.8669   -5.7699    0.2908 H   0  0  0  0  0  0  0  0  0  0  0  0
    4.2812   -4.6792    1.5140 C   0  0  0  0  0  0  0  0  0  0  0  0
    4.7284   -5.5862    1.9479 H   0  0  0  0  0  0  0  0  0  0  0  0
    4.7588   -3.3993    1.9043 C   0  0  0  0  0  0  0  0  0  0  0  0
    5.5697   -3.3222    2.6443 H   0  0  0  0  0  0  0  0  0  0  0  0
    4.2093   -2.2468    1.3630 C   0  0  0  0  0  0  0  0  0  0  0  0
    4.5799   -1.2591    1.6718 H   0  0  0  0  0  0  0  0  0  0  0  0
    3.1524   -2.3163    0.4052 C   0  0  0  0  0  0  0  0  0  0  0  0
    2.5565   -1.1380   -0.1650 C   0  0  0  0  0  0  0  0  0  0  0  0
  1  6  1  0  0  0  0
  2  4  1  0  0  0  0
  2  3  1  0  0  0  0
  5  2  1  0  0  0  0
  6  8  1  0  0  0  0
  6  7  1  0  0  0  0
  9 10  1  0  0  0  0
  9  6  1  0  0  0  0
 10 11  1  0  0  0  0
 12 13  1  0  0  0  0
 12 10  2  0  0  0  0
 14 12  1  0  0  0  0
 15 16  1  0  0  0  0
 15 14  2  0  0  0  0
 17 15  1  0  0  0  0
 18 17  1  0  0  0  0
 19 17  2  0  0  0  0
 19 21  1  0  0  0  0
 20 19  1  0  0  0  0
 21 23  2  0  0  0  0
 22 21  1  0  0  0  0
 23 14  1  0  0  0  0
 23 24  1  0  0  0  0
 24  9  2  0  0  0  0
 25  1  1  0  0  0  0
 25 34  1  0  0  0  0
 26 25  2  0  0  0  0
 27 26  1  0  0  0  0
 28 26  1  0  0  0  0
 28 30  2  0  0  0  0
 29 28  1  0  0  0  0
 30 32  1  0  0  0  0
 31 30  1  0  0  0  0
 32 34  2  0  0  0  0
 32 33  1  0  0  0  0
 34  2  1  0  0  0  0
 35 38  1  0  0  0  0
 35  1  1  0  0  0  0
 36 35  1  0  0  0  0
 37 35  1  0  0  0  0
 38 53  1  0  0  0  0
 39 38  2  0  0  0  0
 39 41  1  0  0  0  0
 40 39  1  0  0  0  0
 41 43  2  0  0  0  0
 42 41  1  0  0  0  0
 43 52  1  0  0  0  0
 43 44  1  0  0  0  0
 44 46  2  0  0  0  0
 45 44  1  0  0  0  0
 46 48  1  0  0  0  0
 46 47  1  0  0  0  0
 48 49  1  0  0  0  0
 50 51  1  0  0  0  0
 50 48  2  0  0  0  0
 52 50  1  0  0  0  0
 53 24  1  0  0  0  0
 53 52  2  0  0  0  0
M  END
