1
 OpenBabel05122313063D

 23 23  0  0  0  0  0  0  0  0999 V2000
    1.9995   -0.6206   -0.1263 O   0  0  0  0  0  1  0  0  0  0  0  0
    4.3201   -0.0349   -0.1618 C   0  0  0  0  0  0  0  0  0  0  0  0
    5.2114    1.0884   -0.1067 C   0  0  0  0  0  0  0  0  0  0  0  0
    6.5889    0.8444   -0.0724 C   0  0  0  0  0  0  0  0  0  0  0  0
    7.2795    1.7014   -0.0215 H   0  0  0  0  0  0  0  0  0  0  0  0
    7.1165   -0.4634   -0.1001 C   0  0  0  0  0  0  0  0  0  0  0  0
    6.2228   -1.5488   -0.1505 C   0  0  0  0  0  0  0  0  0  0  0  0
    6.6259   -2.5739   -0.1690 H   0  0  0  0  0  0  0  0  0  0  0  0
    4.8300   -1.3738   -0.1737 C   0  0  0  0  0  0  0  0  0  0  0  0
    2.8972    0.2462   -0.2003 C   0  0  0  0  0  3  0  0  0  0  0  0
    2.5976    1.3132   -0.2965 H   0  0  0  0  0  0  0  0  0  0  0  0
    4.7120    2.5137   -0.0677 C   0  0  0  0  0  0  0  0  0  0  0  0
    4.0187    2.7052    0.7761 H   0  0  0  0  0  0  0  0  0  0  0  0
    4.1491    2.7870   -0.9831 H   0  0  0  0  0  0  0  0  0  0  0  0
    5.5620    3.2153    0.0270 H   0  0  0  0  0  0  0  0  0  0  0  0
    8.6055   -0.6806   -0.0769 C   0  0  0  0  0  0  0  0  0  0  0  0
    8.8665   -1.7554   -0.0490 H   0  0  0  0  0  0  0  0  0  0  0  0
    9.0660   -0.1881    0.8045 H   0  0  0  0  0  0  0  0  0  0  0  0
    9.0836   -0.2341   -0.9741 H   0  0  0  0  0  0  0  0  0  0  0  0
    3.9408   -2.5857   -0.2078 C   0  0  0  0  0  0  0  0  0  0  0  0
    3.2082   -2.5565   -1.0380 H   0  0  0  0  0  0  0  0  0  0  0  0
    3.3108   -2.6515    0.7022 H   0  0  0  0  0  0  0  0  0  0  0  0
    4.5455   -3.5091   -0.2876 H   0  0  0  0  0  0  0  0  0  0  0  0
  2  3  1  0  0  0  0
  3  4  2  0  0  0  0
  3 12  1  0  0  0  0
  4  5  1  0  0  0  0
  6 16  1  0  0  0  0
  6  4  1  0  0  0  0
  7  6  2  0  0  0  0
  8  7  1  0  0  0  0
  9  2  2  0  0  0  0
  9  7  1  0  0  0  0
 10  2  1  0  0  0  0
 10  1  1  0  0  0  0
 11 10  1  0  0  0  0
 12 15  1  0  0  0  0
 12 13  1  0  0  0  0
 14 12  1  0  0  0  0
 16 17  1  0  0  0  0
 16 18  1  0  0  0  0
 19 16  1  0  0  0  0
 20  9  1  0  0  0  0
 20 22  1  0  0  0  0
 21 20  1  0  0  0  0
 23 20  1  0  0  0  0
M  END
