2
 OpenBabel05122313063D

 16 16  0  0  0  0  0  0  0  0999 V2000
    2.8746    1.3080    0.1420 O   0  5  0  0  0  0  0  0  0  0  0  0
    1.5501   -0.5140   -0.0074 O   0  0  0  0  0  0  0  0  0  0  0  0
    8.5034   -3.0325   -0.0064 O   0  0  0  0  0  0  0  0  0  0  0  0
    2.7000    0.0685    0.0583 C   0  0  0  0  0  0  0  0  0  0  0  0
    3.9000   -0.8513    0.0268 C   0  0  0  0  0  0  0  0  0  0  0  0
    3.7364   -2.2482   -0.0592 C   0  0  0  0  0  0  0  0  0  0  0  0
    2.7147   -2.6510   -0.1042 H   0  0  0  0  0  0  0  0  0  0  0  0
    4.8605   -3.0812   -0.0850 C   0  0  0  0  0  0  0  0  0  0  0  0
    4.7446   -4.1757   -0.1518 H   0  0  0  0  0  0  0  0  0  0  0  0
    6.1562   -2.5277   -0.0258 C   0  0  0  0  0  0  0  0  0  0  0  0
    6.3187   -1.1271    0.0595 C   0  0  0  0  0  0  0  0  0  0  0  0
    7.3430   -0.7264    0.1034 H   0  0  0  0  0  0  0  0  0  0  0  0
    5.1973   -0.2972    0.0857 C   0  0  0  0  0  0  0  0  0  0  0  0
    5.2834    0.7974    0.1511 H   0  0  0  0  0  0  0  0  0  0  0  0
    7.3454   -3.4147   -0.0533 C   0  0  0  0  0  0  0  0  0  0  0  0
    7.0957   -4.5181   -0.1237 H   0  0  0  0  0  0  0  0  0  0  0  0
  2  4  2  0  0  0  0
  4  1  1  0  0  0  0
  5  4  1  0  0  0  0
  5 13  1  0  0  0  0
  6  5  2  0  0  0  0
  7  6  1  0  0  0  0
  8  6  1  0  0  0  0
  8 10  2  0  0  0  0
  9  8  1  0  0  0  0
 10 11  1  0  0  0  0
 11 13  2  0  0  0  0
 11 12  1  0  0  0  0
 13 14  1  0  0  0  0
 15 10  1  0  0  0  0
 15  3  2  0  0  0  0
 16 15  1  0  0  0  0
M  CHG  1   1  -1
M  END
