1
 OpenBabel05122313063D

 22 22  0  0  1  0  0  0  0  0999 V2000
    1.1789    2.0229   -0.4947 O   0  5  0  0  0  0  0  0  0  0  0  0
    0.1756    2.8505   -0.6520 C   0  0  0  0  0  0  0  0  0  0  0  0
    0.2898    4.0562   -0.8245 O   0  0  0  0  0  0  0  0  0  0  0  0
   -1.2500    2.2128   -0.6455 C   0  0  2  0  0  0  0  0  0  0  0  0
   -2.3607    3.1591   -0.2459 C   0  0  0  0  0  0  0  0  0  0  0  0
   -1.1274    0.7577    0.4714 S   0  0  1  0  0  0  0  0  0  0  0  0
   -1.2621    1.2045    1.9161 O   0  0  0  0  0  0  0  0  0  0  0  0
   -2.5913   -0.2590    0.1283 C   0  0  0  0  0  0  0  0  0  0  0  0
   -3.6084   -0.2319    1.0944 C   0  0  0  0  0  0  0  0  0  0  0  0
   -4.7514   -1.0183    0.8861 C   0  0  0  0  0  0  0  0  0  0  0  0
   -4.8582   -1.8171   -0.2643 C   0  0  0  0  0  0  0  0  0  0  0  0
   -3.8207   -1.8360   -1.2122 C   0  0  0  0  0  0  0  0  0  0  0  0
   -2.6690   -1.0566   -1.0242 C   0  0  0  0  0  0  0  0  0  0  0  0
   -1.3880    1.7340   -1.6411 H   0  0  0  0  0  0  0  0  0  0  0  0
   -3.3635    2.7350   -0.4473 H   0  0  0  0  0  0  0  0  0  0  0  0
   -2.2277    4.0931   -0.8257 H   0  0  0  0  0  0  0  0  0  0  0  0
   -2.2798    3.4138    0.8290 H   0  0  0  0  0  0  0  0  0  0  0  0
   -3.4798    0.3944    1.9894 H   0  0  0  0  0  0  0  0  0  0  0  0
   -5.5620   -1.0082    1.6304 H   0  0  0  0  0  0  0  0  0  0  0  0
   -5.7560   -2.4339   -0.4215 H   0  0  0  0  0  0  0  0  0  0  0  0
   -3.9039   -2.4671   -2.1099 H   0  0  0  0  0  0  0  0  0  0  0  0
   -1.8382   -1.0577   -1.7510 H   0  0  0  0  0  0  0  0  0  0  0  0
  2  4  1  0  0  0  0
  2  1  1  0  0  0  0
  3  2  2  0  0  0  0
  4 14  1  6  0  0  0
  4  5  1  0  0  0  0
  4  6  1  0  0  0  0
  5 17  1  0  0  0  0
  6  7  2  1  0  0  0
  8  6  1  0  0  0  0
  8  9  1  0  0  0  0
  9 18  1  0  0  0  0
 10  9  2  0  0  0  0
 10 19  1  0  0  0  0
 11 10  1  0  0  0  0
 12 13  1  0  0  0  0
 12 11  2  0  0  0  0
 13  8  2  0  0  0  0
 15  5  1  0  0  0  0
 16  5  1  0  0  0  0
 20 11  1  0  0  0  0
 21 12  1  0  0  0  0
 22 13  1  0  0  0  0
M  CHG  1   1  -1
M  END
