1
 OpenBabel05122313063D

 42 44  0  0  0  0  0  0  0  0999 V2000
   -1.6497   -0.7804    0.3717 O   0  5  0  0  0  0  0  0  0  0  0  0
   -2.3014    0.3127    0.2078 C   0  0  0  0  0  0  0  0  0  0  0  0
   -3.7358    0.3507    0.1300 C   0  0  0  0  0  0  0  0  0  0  0  0
   -4.2646   -0.6150    0.1632 H   0  0  0  0  0  0  0  0  0  0  0  0
   -4.4138    1.5499    0.0151 C   0  0  0  0  0  0  0  0  0  0  0  0
   -5.5103    1.5955   -0.0369 H   0  0  0  0  0  0  0  0  0  0  0  0
   -3.6869    2.7699   -0.0364 C   0  0  0  0  0  0  0  0  0  0  0  0
   -2.3015    2.7881    0.0040 C   0  0  0  0  0  0  0  0  0  0  0  0
   -1.7878    3.7586   -0.0568 H   0  0  0  0  0  0  0  0  0  0  0  0
   -1.5653    1.5770    0.1055 C   0  0  0  0  0  0  0  0  0  0  0  0
   -0.1385    1.6442    0.0790 C   0  0  0  0  0  3  0  0  0  0  0  0
    0.2590    2.6710    0.0337 H   0  0  0  0  0  0  0  0  0  0  0  0
    0.7598    0.5780    0.0738 C   0  0  0  0  0  0  0  0  0  0  0  0
    0.3260   -0.4306    0.0930 H   0  0  0  0  0  0  0  0  0  0  0  0
    2.1627    0.6956    0.0403 C   0  0  0  0  0  0  0  0  0  0  0  0
    3.0230    1.9703    0.0308 C   0  0  0  0  0  0  0  0  0  0  0  0
    2.7694    2.8145   -1.2407 C   0  0  0  0  0  0  0  0  0  0  0  0
    2.9062    2.2056   -2.1552 H   0  0  0  0  0  0  0  0  0  0  0  0
    3.4911    3.6543   -1.2759 H   0  0  0  0  0  0  0  0  0  0  0  0
    1.7476    3.2382   -1.2566 H   0  0  0  0  0  0  0  0  0  0  0  0
    2.8184    2.7998    1.3194 C   0  0  0  0  0  0  0  0  0  0  0  0
    1.7932    3.2115    1.3816 H   0  0  0  0  0  0  0  0  0  0  0  0
    3.5329    3.6465    1.3325 H   0  0  0  0  0  0  0  0  0  0  0  0
    2.9987    2.1829    2.2209 H   0  0  0  0  0  0  0  0  0  0  0  0
    4.4272    1.3914   -0.0079 C   0  0  0  0  0  0  0  0  0  0  0  0
    5.6769    2.0106   -0.0343 C   0  0  0  0  0  0  0  0  0  0  0  0
    5.7656    3.1077   -0.0186 H   0  0  0  0  0  0  0  0  0  0  0  0
    6.8306    1.2029   -0.0840 C   0  0  0  0  0  0  0  0  0  0  0  0
    7.8243    1.6737   -0.1055 H   0  0  0  0  0  0  0  0  0  0  0  0
    6.7250   -0.1991   -0.1104 C   0  0  0  0  0  0  0  0  0  0  0  0
    7.6370   -0.8126   -0.1545 H   0  0  0  0  0  0  0  0  0  0  0  0
    5.4714   -0.8354   -0.0839 C   0  0  0  0  0  0  0  0  0  0  0  0
    5.3911   -1.9304   -0.1108 H   0  0  0  0  0  0  0  0  0  0  0  0
    4.3400   -0.0116   -0.0269 C   0  0  0  0  0  0  0  0  0  0  0  0
    2.9803   -0.3907    0.0153 N   0  0  0  0  0  0  0  0  0  0  0  0
    2.5822   -1.7918   -0.0071 C   0  0  0  0  0  0  0  0  0  0  0  0
    3.2481   -2.3633    0.6667 H   0  0  0  0  0  0  0  0  0  0  0  0
    2.6860   -2.2031   -1.0322 H   0  0  0  0  0  0  0  0  0  0  0  0
    1.5339   -1.9523    0.3251 H   0  0  0  0  0  0  0  0  0  0  0  0
   -4.4174    4.0417   -0.1459 N   0  0  0  0  0  0  0  0  0  0  0  0
   -3.7547    5.0821   -0.1929 O   0  0  0  0  0  0  0  0  0  0  0  0
   -5.6491    3.9874   -0.1835 O   0  0  0  0  0  0  0  0  0  0  0  0
  2  1  1  0  0  0  0
  3  4  1  0  0  0  0
  3  2  1  0  0  0  0
  5  3  2  0  0  0  0
  6  5  1  0  0  0  0
  7  8  2  0  0  0  0
  7  5  1  0  0  0  0
  8 10  1  0  0  0  0
  9  8  1  0  0  0  0
 10  2  2  0  0  0  0
 11 10  1  0  0  0  0
 12 11  1  0  0  0  0
 13 11  1  0  0  0  0
 13 14  1  0  0  0  0
 15 13  2  0  0  0  0
 16 15  1  0  0  0  0
 16 21  1  0  0  0  0
 17 16  1  0  0  0  0
 18 17  1  0  0  0  0
 19 17  1  0  0  0  0
 20 17  1  0  0  0  0
 21 23  1  0  0  0  0
 21 22  1  0  0  0  0
 21 24  1  0  0  0  0
 25 16  1  0  0  0  0
 26 27  1  0  0  0  0
 26 25  2  0  0  0  0
 28 26  1  0  0  0  0
 29 28  1  0  0  0  0
 30 28  2  0  0  0  0
 30 32  1  0  0  0  0
 31 30  1  0  0  0  0
 32 34  2  0  0  0  0
 33 32  1  0  0  0  0
 34 25  1  0  0  0  0
 34 35  1  0  0  0  0
 35 15  1  0  0  0  0
 36 35  1  0  0  0  0
 36 39  1  0  0  0  0
 36 37  1  0  0  0  0
 38 36  1  0  0  0  0
 40  7  1  0  0  0  0
 41 40  2  0  0  0  0
 42 40  2  0  0  0  0
M  CHG  1   1  -1
M  END
