2
 OpenBabel05122313063D

 17 17  0  0  0  0  0  0  0  0999 V2000
    3.9473    0.0738   -1.6277 S   0  0  0  0  0  0  0  0  0  0  0  0
    1.8172    0.2641   -0.0230 O   0  5  0  0  0  0  0  0  0  0  0  0
    1.7149    0.4782    2.2304 O   0  0  0  0  0  0  0  0  0  0  0  0
    5.9988    0.4491    0.0364 N   0  0  0  0  0  0  0  0  0  0  0  0
    2.3446    0.4143    1.1562 C   0  0  0  0  0  0  0  0  0  0  0  0
    3.8422    0.5059    1.1426 C   0  0  0  0  0  0  0  0  0  0  0  0
    4.4923    0.7306    2.3664 C   0  0  0  0  0  0  0  0  0  0  0  0
    3.8559    0.8289    3.2589 H   0  0  0  0  0  0  0  0  0  0  0  0
    5.8880    0.8180    2.4216 C   0  0  0  0  0  0  0  0  0  0  0  0
    6.4187    0.9951    3.3681 H   0  0  0  0  0  0  0  0  0  0  0  0
    6.5910    0.6680    1.2170 C   0  0  0  0  0  0  0  0  0  0  0  0
    7.6948    0.7265    1.2011 H   0  0  0  0  0  0  0  0  0  0  0  0
    4.6581    0.3679   -0.0239 C   0  0  0  0  0  0  0  0  0  0  0  0
    5.4751   -0.0335   -2.6145 C   0  0  0  0  0  0  0  0  0  0  0  0
    6.0515    0.9090   -2.5666 H   0  0  0  0  0  0  0  0  0  0  0  0
    5.1337   -0.2225   -3.6511 H   0  0  0  0  0  0  0  0  0  0  0  0
    6.1223   -0.8604   -2.2670 H   0  0  0  0  0  0  0  0  0  0  0  0
  1 13  1  0  0  0  0
  2  5  1  0  0  0  0
  4 11  1  0  0  0  0
  5  3  2  0  0  0  0
  6  5  1  0  0  0  0
  6  7  2  0  0  0  0
  7  9  1  0  0  0  0
  7  8  1  0  0  0  0
  9 10  1  0  0  0  0
 11  9  2  0  0  0  0
 12 11  1  0  0  0  0
 13  4  2  0  0  0  0
 13  6  1  0  0  0  0
 14 15  1  0  0  0  0
 14 17  1  0  0  0  0
 14  1  1  0  0  0  0
 16 14  1  0  0  0  0
M  CHG  1   2  -1
M  END
