1
 OpenBabel05122313063D

 49 54  0  0  1  0  0  0  0  0999 V2000
   -0.7845   -0.1721    0.0634 O   0  0  0  0  0  1  0  0  0  0  0  0
    1.5970   -0.1597    0.1738 C   0  0  2  0  0  0  0  0  0  0  0  0
    0.2602    0.4097   -0.2866 C   0  0  2  0  0  3  0  0  0  0  0  0
    0.1058    1.7234   -1.0269 C   0  0  1  0  0  0  0  0  0  0  0  0
   -0.2918    2.7683    0.0577 C   0  0  0  0  0  0  0  0  0  0  0  0
    0.9349    3.2230    0.8560 C   0  0  1  0  0  0  0  0  0  0  0  0
    1.6435    2.0593    1.5931 C   0  0  0  0  0  0  0  0  0  0  0  0
    2.4455    1.0681    0.6980 C   0  0  2  0  0  0  0  0  0  0  0  0
    3.2513    1.8484   -0.3618 C   0  0  0  0  0  0  0  0  0  0  0  0
    2.4259    2.8946   -1.1185 C   0  0  2  0  0  0  0  0  0  0  0  0
    1.9072    3.9260   -0.1035 C   0  0  0  0  0  0  0  0  0  0  0  0
    1.2542    2.2691   -1.8987 C   0  0  0  0  0  0  0  0  0  0  0  0
    2.2912   -0.9255   -1.0161 C   0  0  1  0  0  0  0  0  0  0  0  0
    3.6704   -1.4532   -0.5622 C   0  0  0  0  0  0  0  0  0  0  0  0
    3.5068   -2.4647    0.5854 C   0  0  1  0  0  0  0  0  0  0  0  0
    2.7894   -1.7821    1.7677 C   0  0  0  0  0  0  0  0  0  0  0  0
    1.4136   -1.2390    1.3134 C   0  0  2  0  0  0  0  0  0  0  0  0
    0.6008   -2.4806    0.8616 C   0  0  0  0  0  0  0  0  0  0  0  0
    1.2823   -3.1501   -0.3419 C   0  0  2  0  0  0  0  0  0  0  0  0
    2.6720   -3.6565    0.0821 C   0  0  0  0  0  0  0  0  0  0  0  0
    1.4260   -2.1180   -1.4762 C   0  0  0  0  0  0  0  0  0  0  0  0
    4.3406   -0.6257   -0.2545 H   0  0  0  0  0  0  0  0  0  0  0  0
   -0.7821    1.5623   -1.6723 H   0  0  0  0  0  0  0  0  0  0  0  0
   -1.0724    2.3534    0.7245 H   0  0  0  0  0  0  0  0  0  0  0  0
   -0.7472    3.6362   -0.4639 H   0  0  0  0  0  0  0  0  0  0  0  0
    0.5881    3.9426    1.6276 H   0  0  0  0  0  0  0  0  0  0  0  0
    2.3623    2.5098    2.3097 H   0  0  0  0  0  0  0  0  0  0  0  0
    0.9053    1.5065    2.2130 H   0  0  0  0  0  0  0  0  0  0  0  0
    3.1938    0.6069    1.3664 H   0  0  0  0  0  0  0  0  0  0  0  0
    4.0738    2.3772    0.1676 H   0  0  0  0  0  0  0  0  0  0  0  0
    3.7493    1.1624   -1.0726 H   0  0  0  0  0  0  0  0  0  0  0  0
    3.0904    3.3993   -1.8519 H   0  0  0  0  0  0  0  0  0  0  0  0
    2.7623    4.3667    0.4520 H   0  0  0  0  0  0  0  0  0  0  0  0
    1.3896    4.7632   -0.6185 H   0  0  0  0  0  0  0  0  0  0  0  0
    1.6201    1.4903   -2.5986 H   0  0  0  0  0  0  0  0  0  0  0  0
    0.8019    3.0576   -2.5373 H   0  0  0  0  0  0  0  0  0  0  0  0
    2.4289   -0.2361   -1.8717 H   0  0  0  0  0  0  0  0  0  0  0  0
    4.5079   -2.8170    0.9128 H   0  0  0  0  0  0  0  0  0  0  0  0
    4.1592   -1.9437   -1.4315 H   0  0  0  0  0  0  0  0  0  0  0  0
    3.4351   -0.9932    2.2049 H   0  0  0  0  0  0  0  0  0  0  0  0
    2.6218   -2.5178    2.5825 H   0  0  0  0  0  0  0  0  0  0  0  0
    0.8916   -0.7585    2.1676 H   0  0  0  0  0  0  0  0  0  0  0  0
   -0.4404   -2.2226    0.6158 H   0  0  0  0  0  0  0  0  0  0  0  0
    0.5634   -3.1919    1.7144 H   0  0  0  0  0  0  0  0  0  0  0  0
    0.6592   -3.9983   -0.6951 H   0  0  0  0  0  0  0  0  0  0  0  0
    2.5697   -4.4198    0.8828 H   0  0  0  0  0  0  0  0  0  0  0  0
    3.1876   -4.1480   -0.7714 H   0  0  0  0  0  0  0  0  0  0  0  0
    1.9139   -2.5876   -2.3572 H   0  0  0  0  0  0  0  0  0  0  0  0
    0.4233   -1.7799   -1.8118 H   0  0  0  0  0  0  0  0  0  0  0  0
  2  8  1  0  0  0  0
  2 17  1  0  0  0  0
  3  1  1  1  0  0  0
  3  2  1  0  0  0  0
  4  3  1  0  0  0  0
  4  5  1  0  0  0  0
  5 24  1  0  0  0  0
  5  6  1  0  0  0  0
  6  7  1  0  0  0  0
  6 26  1  1  0  0  0
  7 28  1  0  0  0  0
  7 27  1  0  0  0  0
  8 29  1  0  0  0  0
  8  7  1  0  0  0  0
  9 30  1  0  0  0  0
  9  8  1  0  0  0  0
 10 32  1  6  0  0  0
 10  9  1  0  0  0  0
 10 11  1  0  0  0  0
 11 33  1  0  0  0  0
 11  6  1  0  0  0  0
 12 10  1  0  0  0  0
 12  4  1  0  0  0  0
 13 14  1  0  0  0  0
 13  2  1  0  0  0  0
 14 22  1  0  0  0  0
 14 15  1  0  0  0  0
 15 38  1  0  0  0  0
 15 16  1  0  0  0  0
 16 40  1  0  0  0  0
 16 41  1  0  0  0  0
 17 16  1  0  0  0  0
 17 42  1  0  0  0  0
 18 17  1  0  0  0  0
 18 44  1  0  0  0  0
 19 20  1  0  0  0  0
 19 18  1  0  0  0  0
 20 15  1  0  0  0  0
 20 46  1  0  0  0  0
 21 13  1  0  0  0  0
 21 19  1  0  0  0  0
 23  4  1  0  0  0  0
 25  5  1  0  0  0  0
 31  9  1  0  0  0  0
 34 11  1  0  0  0  0
 35 12  1  0  0  0  0
 36 12  1  0  0  0  0
 37 13  1  0  0  0  0
 39 14  1  0  0  0  0
 43 18  1  0  0  0  0
 45 19  1  0  0  0  0
 47 20  1  0  0  0  0
 48 21  1  0  0  0  0
 49 21  1  0  0  0  0
M  END
