1
 OpenBabel05122313063D

 56 58  0  0  0  0  0  0  0  0999 V2000
    0.3318   -0.0007   -0.3470 O   0  5  0  0  0  0  0  0  0  0  0  0
   -1.0061   -0.0334   -0.1604 C   0  0  0  0  0  0  0  0  0  0  0  0
   -1.6408   -1.3058   -0.0661 C   0  0  0  0  0  0  0  0  0  0  0  0
   -3.0464   -1.3575    0.1405 C   0  0  0  0  0  0  0  0  0  0  0  0
   -3.7360   -0.1323    0.1363 C   0  0  0  0  0  0  0  0  0  0  0  0
   -3.1516    1.1381   -0.0270 C   0  0  0  0  0  0  0  0  0  0  0  0
   -1.7329    1.1955   -0.1017 C   0  0  0  0  0  0  0  0  0  0  0  0
   -0.7947   -2.5173   -0.2941 C   0  0  0  0  0  0  0  0  0  0  0  0
   -0.5499   -2.9388   -1.6180 C   0  0  0  0  0  0  0  0  0  0  0  0
    0.1585   -4.1188   -1.8746 C   0  0  0  0  0  0  0  0  0  0  0  0
    0.6504   -4.8919   -0.8107 C   0  0  0  0  0  0  0  0  0  0  0  0
    0.4495   -4.4615    0.5086 C   0  0  0  0  0  0  0  0  0  0  0  0
   -0.2596   -3.2767    0.7627 C   0  0  0  0  0  0  0  0  0  0  0  0
   -3.8584   -2.6611    0.3799 C   0  0  0  0  0  0  0  0  0  0  0  0
   -3.5282   -3.2100    1.7881 C   0  0  0  0  0  0  0  0  0  0  0  0
   -3.5801   -3.7528   -0.6798 C   0  0  0  0  0  0  0  0  0  0  0  0
   -5.3806   -2.3977    0.3454 C   0  0  0  0  0  0  0  0  0  0  0  0
   -4.1208    2.3534   -0.1445 C   0  0  0  0  0  0  0  0  0  0  0  0
   -5.4899    1.8967   -0.7116 C   0  0  0  0  0  0  0  0  0  0  0  0
   -4.3873    2.9654    1.2504 C   0  0  0  0  0  0  0  0  0  0  0  0
   -3.6149    3.4515   -1.1091 C   0  0  0  0  0  0  0  0  0  0  0  0
   -0.9780    2.4815   -0.1320 C   0  0  0  0  0  0  0  0  0  0  0  0
   -0.3067    2.9099   -1.2946 C   0  0  0  0  0  0  0  0  0  0  0  0
    0.2820    4.1810   -1.3526 C   0  0  0  0  0  0  0  0  0  0  0  0
    0.2165    5.0446   -0.2478 C   0  0  0  0  0  0  0  0  0  0  0  0
   -0.4033    4.6106    0.9351 C   0  0  0  0  0  0  0  0  0  0  0  0
   -0.9790    3.3326    0.9956 C   0  0  0  0  0  0  0  0  0  0  0  0
   -4.8213   -0.1687    0.2402 H   0  0  0  0  0  0  0  0  0  0  0  0
   -0.9412   -2.3352   -2.4503 H   0  0  0  0  0  0  0  0  0  0  0  0
    0.3356   -4.4341   -2.9138 H   0  0  0  0  0  0  0  0  0  0  0  0
    1.2041   -5.8215   -1.0115 H   0  0  0  0  0  0  0  0  0  0  0  0
    0.8485   -5.0501    1.3490 H   0  0  0  0  0  0  0  0  0  0  0  0
   -0.4161   -2.9404    1.7983 H   0  0  0  0  0  0  0  0  0  0  0  0
   -2.4712   -3.5207    1.8679 H   0  0  0  0  0  0  0  0  0  0  0  0
   -4.1571   -4.0978    2.0083 H   0  0  0  0  0  0  0  0  0  0  0  0
   -3.7274   -2.4459    2.5668 H   0  0  0  0  0  0  0  0  0  0  0  0
   -3.6953   -3.3528   -1.7074 H   0  0  0  0  0  0  0  0  0  0  0  0
   -4.3101   -4.5787   -0.5535 H   0  0  0  0  0  0  0  0  0  0  0  0
   -2.5706   -4.1887   -0.5948 H   0  0  0  0  0  0  0  0  0  0  0  0
   -5.7132   -1.7110    1.1491 H   0  0  0  0  0  0  0  0  0  0  0  0
   -5.9149   -3.3564    0.4976 H   0  0  0  0  0  0  0  0  0  0  0  0
   -5.7100   -1.9811   -0.6278 H   0  0  0  0  0  0  0  0  0  0  0  0
   -6.1190    2.7896   -0.8987 H   0  0  0  0  0  0  0  0  0  0  0  0
   -6.0579    1.2513   -0.0135 H   0  0  0  0  0  0  0  0  0  0  0  0
   -5.3747    1.3521   -1.6702 H   0  0  0  0  0  0  0  0  0  0  0  0
   -3.4775    3.4229    1.6797 H   0  0  0  0  0  0  0  0  0  0  0  0
   -4.7535    2.1935    1.9574 H   0  0  0  0  0  0  0  0  0  0  0  0
   -5.1602    3.7590    1.1785 H   0  0  0  0  0  0  0  0  0  0  0  0
   -4.4391    4.1674   -1.3043 H   0  0  0  0  0  0  0  0  0  0  0  0
   -3.3046    3.0199   -2.0817 H   0  0  0  0  0  0  0  0  0  0  0  0
   -2.7675    4.0321   -0.7086 H   0  0  0  0  0  0  0  0  0  0  0  0
   -0.2686    2.2465   -2.1697 H   0  0  0  0  0  0  0  0  0  0  0  0
    0.7960    4.4967   -2.2727 H   0  0  0  0  0  0  0  0  0  0  0  0
    0.6646    6.0484   -0.3018 H   0  0  0  0  0  0  0  0  0  0  0  0
   -0.4342    5.2675    1.8178 H   0  0  0  0  0  0  0  0  0  0  0  0
   -1.4615    2.9901    1.9227 H   0  0  0  0  0  0  0  0  0  0  0  0
  1  2  1  0  0  0  0
  2  7  2  0  0  0  0
  2  3  1  0  0  0  0
  3  4  2  0  0  0  0
  4 14  1  0  0  0  0
  5  4  1  0  0  0  0
  5 28  1  0  0  0  0
  6  5  2  0  0  0  0
  7  6  1  0  0  0  0
  8  3  1  0  0  0  0
  8 13  1  0  0  0  0
  9  8  2  0  0  0  0
 10  9  1  0  0  0  0
 10 11  2  0  0  0  0
 11 12  1  0  0  0  0
 12 13  2  0  0  0  0
 12 32  1  0  0  0  0
 13 33  1  0  0  0  0
 14 15  1  0  0  0  0
 15 34  1  0  0  0  0
 15 35  1  0  0  0  0
 15 36  1  0  0  0  0
 16 39  1  0  0  0  0
 16 38  1  0  0  0  0
 16 14  1  0  0  0  0
 17 14  1  0  0  0  0
 17 41  1  0  0  0  0
 17 40  1  0  0  0  0
 18  6  1  0  0  0  0
 18 20  1  0  0  0  0
 19 18  1  0  0  0  0
 19 44  1  0  0  0  0
 20 46  1  0  0  0  0
 20 47  1  0  0  0  0
 21 51  1  0  0  0  0
 21 18  1  0  0  0  0
 22  7  1  0  0  0  0
 22 27  1  0  0  0  0
 23 22  2  0  0  0  0
 24 23  1  0  0  0  0
 24 25  2  0  0  0  0
 25 26  1  0  0  0  0
 26 27  2  0  0  0  0
 26 55  1  0  0  0  0
 27 56  1  0  0  0  0
 29  9  1  0  0  0  0
 30 10  1  0  0  0  0
 31 11  1  0  0  0  0
 37 16  1  0  0  0  0
 42 17  1  0  0  0  0
 43 19  1  0  0  0  0
 45 19  1  0  0  0  0
 48 20  1  0  0  0  0
 49 21  1  0  0  0  0
 50 21  1  0  0  0  0
 52 23  1  0  0  0  0
 53 24  1  0  0  0  0
 54 25  1  0  0  0  0
M  CHG  1   1  -1
M  END
