1
 OpenBabel05122313063D

 50 54  0  0  0  0  0  0  0  0999 V2000
   -0.1415   -0.0283    0.4245 O   0  5  0  0  0  0  0  0  0  0  0  0
   -0.0296    1.2977    0.2287 C   0  0  0  0  0  0  0  0  0  0  0  0
   -1.1393    2.0308   -0.2708 C   0  0  0  0  0  0  0  0  0  0  0  0
   -1.0177    3.4347   -0.4107 C   0  0  0  0  0  0  0  0  0  0  0  0
    0.2024    4.0512   -0.0752 C   0  0  0  0  0  0  0  0  0  0  0  0
    1.3176    3.3269    0.3840 C   0  0  0  0  0  0  0  0  0  0  0  0
    1.2014    1.9272    0.5418 C   0  0  0  0  0  0  0  0  0  0  0  0
   -2.3848    1.3096   -0.6593 C   0  0  0  0  0  0  0  0  0  0  0  0
   -2.7314    1.2136   -2.0068 C   0  0  0  0  0  0  0  0  0  0  0  0
   -3.8860    0.5029   -2.4249 C   0  0  0  0  0  0  0  0  0  0  0  0
   -4.6954   -0.1208   -1.4876 C   0  0  0  0  0  0  0  0  0  0  0  0
   -4.3934   -0.0384   -0.0973 C   0  0  0  0  0  0  0  0  0  0  0  0
   -5.2153   -0.6639    0.8856 C   0  0  0  0  0  0  0  0  0  0  0  0
   -4.9136   -0.5636    2.2341 C   0  0  0  0  0  0  0  0  0  0  0  0
   -3.7767    0.1754    2.6566 C   0  0  0  0  0  0  0  0  0  0  0  0
   -2.9546    0.7926    1.7271 C   0  0  0  0  0  0  0  0  0  0  0  0
   -3.2282    0.6981    0.3312 C   0  0  0  0  0  0  0  0  0  0  0  0
   -2.1809    4.2664   -0.8936 C   0  0  0  0  0  0  0  0  0  0  0  0
    2.6175    4.0197    0.7039 C   0  0  0  0  0  0  0  0  0  0  0  0
    2.3458    1.0829    0.9898 C   0  0  0  0  0  0  0  0  0  0  0  0
    2.4824    0.7152    2.3246 C   0  0  0  0  0  0  0  0  0  0  0  0
    3.5450   -0.1225    2.7507 C   0  0  0  0  0  0  0  0  0  0  0  0
    4.4631   -0.6087    1.8349 C   0  0  0  0  0  0  0  0  0  0  0  0
    4.3615   -0.2660    0.4558 C   0  0  0  0  0  0  0  0  0  0  0  0
    5.2786   -0.7659   -0.5155 C   0  0  0  0  0  0  0  0  0  0  0  0
    5.1684   -0.4151   -1.8531 C   0  0  0  0  0  0  0  0  0  0  0  0
    4.1327    0.4616   -2.2758 C   0  0  0  0  0  0  0  0  0  0  0  0
    3.2177    0.9579   -1.3579 C   0  0  0  0  0  0  0  0  0  0  0  0
    3.2966    0.6067    0.0233 C   0  0  0  0  0  0  0  0  0  0  0  0
    0.2869    5.1451   -0.1753 H   0  0  0  0  0  0  0  0  0  0  0  0
   -2.0800    1.6832   -2.7601 H   0  0  0  0  0  0  0  0  0  0  0  0
   -4.1271    0.4408   -3.4970 H   0  0  0  0  0  0  0  0  0  0  0  0
   -5.5866   -0.6855   -1.8030 H   0  0  0  0  0  0  0  0  0  0  0  0
   -6.0967   -1.2324    0.5502 H   0  0  0  0  0  0  0  0  0  0  0  0
   -5.5531   -1.0571    2.9814 H   0  0  0  0  0  0  0  0  0  0  0  0
   -3.5446    0.2522    3.7295 H   0  0  0  0  0  0  0  0  0  0  0  0
   -2.0727    1.3602    2.0567 H   0  0  0  0  0  0  0  0  0  0  0  0
   -3.1259    3.9647   -0.3995 H   0  0  0  0  0  0  0  0  0  0  0  0
   -2.3486    4.1469   -1.9841 H   0  0  0  0  0  0  0  0  0  0  0  0
   -2.0077    5.3421   -0.6976 H   0  0  0  0  0  0  0  0  0  0  0  0
    2.9426    3.8064    1.7425 H   0  0  0  0  0  0  0  0  0  0  0  0
    2.5322    5.1162    0.5811 H   0  0  0  0  0  0  0  0  0  0  0  0
    3.4354    3.6597    0.0454 H   0  0  0  0  0  0  0  0  0  0  0  0
    1.7392    1.0698    3.0545 H   0  0  0  0  0  0  0  0  0  0  0  0
    3.6217   -0.4010    3.8123 H   0  0  0  0  0  0  0  0  0  0  0  0
    5.2768   -1.2769    2.1565 H   0  0  0  0  0  0  0  0  0  0  0  0
    6.0823   -1.4403   -0.1806 H   0  0  0  0  0  0  0  0  0  0  0  0
    5.8847   -0.8106   -2.5890 H   0  0  0  0  0  0  0  0  0  0  0  0
    4.0540    0.7423   -3.3371 H   0  0  0  0  0  0  0  0  0  0  0  0
    2.4103    1.6307   -1.6844 H   0  0  0  0  0  0  0  0  0  0  0  0
  2  1  1  0  0  0  0
  2  7  1  0  0  0  0
  3  2  2  0  0  0  0
  4  3  1  0  0  0  0
  4  5  2  0  0  0  0
  5  6  1  0  0  0  0
  6  7  2  0  0  0  0
  6 19  1  0  0  0  0
  7 20  1  0  0  0  0
  8  3  1  0  0  0  0
  8 17  1  0  0  0  0
  9  8  2  0  0  0  0
 10  9  1  0  0  0  0
 10 11  2  0  0  0  0
 11 12  1  0  0  0  0
 12 17  2  0  0  0  0
 12 13  1  0  0  0  0
 13 14  2  0  0  0  0
 14 15  1  0  0  0  0
 14 35  1  0  0  0  0
 15 36  1  0  0  0  0
 16 37  1  0  0  0  0
 16 15  2  0  0  0  0
 17 16  1  0  0  0  0
 18 40  1  0  0  0  0
 18  4  1  0  0  0  0
 18 38  1  0  0  0  0
 19 41  1  0  0  0  0
 20 21  1  0  0  0  0
 21 22  2  0  0  0  0
 21 44  1  0  0  0  0
 22 45  1  0  0  0  0
 23 46  1  0  0  0  0
 23 22  1  0  0  0  0
 24 23  2  0  0  0  0
 25 47  1  0  0  0  0
 25 24  1  0  0  0  0
 26 25  2  0  0  0  0
 27 26  1  0  0  0  0
 27 28  2  0  0  0  0
 28 29  1  0  0  0  0
 29 24  1  0  0  0  0
 29 20  2  0  0  0  0
 30  5  1  0  0  0  0
 31  9  1  0  0  0  0
 32 10  1  0  0  0  0
 33 11  1  0  0  0  0
 34 13  1  0  0  0  0
 39 18  1  0  0  0  0
 42 19  1  0  0  0  0
 43 19  1  0  0  0  0
 48 26  1  0  0  0  0
 49 27  1  0  0  0  0
 50 28  1  0  0  0  0
M  CHG  1   1  -1
M  END
