1
 OpenBabel05122313063D

 27 27  0  0  0  0  0  0  0  0999 V2000
    0.0002    0.3126   -0.7821 O   0  5  0  0  0  0  0  0  0  0  0  0
    1.3138    0.3710   -0.5676 C   0  0  0  0  0  0  0  0  0  0  0  0
    2.0805   -0.8254   -0.5238 C   0  0  0  0  0  0  0  0  0  0  0  0
    3.4731   -0.7667   -0.3478 C   0  0  0  0  0  0  0  0  0  0  0  0
    4.0738   -1.6857   -0.3148 H   0  0  0  0  0  0  0  0  0  0  0  0
    4.1158    0.4775   -0.1956 C   0  0  0  0  0  0  0  0  0  0  0  0
    3.3591    1.6639   -0.2007 C   0  0  0  0  0  0  0  0  0  0  0  0
    3.8706    2.6262   -0.0636 H   0  0  0  0  0  0  0  0  0  0  0  0
    1.9629    1.6181   -0.3766 C   0  0  0  0  0  0  0  0  0  0  0  0
    1.1366    2.7011   -0.3585 O   0  0  0  0  0  0  0  0  0  0  0  0
    1.3515   -1.9647   -0.6468 O   0  0  0  0  0  0  0  0  0  0  0  0
    1.7207    3.9868   -0.2644 C   0  0  0  0  0  0  0  0  0  0  0  0
    0.8859    4.7107   -0.3039 H   0  0  0  0  0  0  0  0  0  0  0  0
    2.4145    4.1852   -1.1111 H   0  0  0  0  0  0  0  0  0  0  0  0
    2.2749    4.1239    0.6915 H   0  0  0  0  0  0  0  0  0  0  0  0
    5.6278    0.5288   -0.0437 C   0  0  0  0  0  0  0  0  0  0  0  0
    6.1100    0.3422   -1.0291 H   0  0  0  0  0  0  0  0  0  0  0  0
    5.9174    1.5597    0.2555 H   0  0  0  0  0  0  0  0  0  0  0  0
    2.0336   -3.2000   -0.7478 C   0  0  0  0  0  0  0  0  0  0  0  0
    1.2532   -3.9662   -0.9088 H   0  0  0  0  0  0  0  0  0  0  0  0
    2.6001   -3.4404    0.1800 H   0  0  0  0  0  0  0  0  0  0  0  0
    2.7384   -3.2087   -1.6085 H   0  0  0  0  0  0  0  0  0  0  0  0
    6.1601   -0.4554    0.9624 C   0  0  0  0  0  0  0  0  0  0  0  0
    5.7796   -0.3363    1.9935 H   0  0  0  0  0  0  0  0  0  0  0  0
    7.0212   -1.4514    0.6901 C   0  0  0  0  0  0  0  0  0  0  0  0
    7.4142   -1.6056   -0.3293 H   0  0  0  0  0  0  0  0  0  0  0  0
    7.3717   -2.1425    1.4724 H   0  0  0  0  0  0  0  0  0  0  0  0
  1  2  1  0  0  0  0
  2  3  2  0  0  0  0
  2  9  1  0  0  0  0
  3  4  1  0  0  0  0
  4  5  1  0  0  0  0
  4  6  2  0  0  0  0
  6 16  1  0  0  0  0
  7  6  1  0  0  0  0
  7  8  1  0  0  0  0
  9 10  1  0  0  0  0
  9  7  2  0  0  0  0
 10 12  1  0  0  0  0
 11  3  1  0  0  0  0
 12 15  1  0  0  0  0
 13 12  1  0  0  0  0
 14 12  1  0  0  0  0
 16 18  1  0  0  0  0
 16 23  1  0  0  0  0
 17 16  1  0  0  0  0
 19 11  1  0  0  0  0
 19 21  1  0  0  0  0
 20 19  1  0  0  0  0
 22 19  1  0  0  0  0
 23 24  1  0  0  0  0
 25 23  2  0  0  0  0
 25 27  1  0  0  0  0
 26 25  1  0  0  0  0
M  CHG  1   1  -1
M  END
