1
 OpenBabel05122313063D

 14 14  0  0  0  0  0  0  0  0999 V2000
    0.8265   -0.1287    0.1538 O   0  0  0  0  0  1  0  0  0  0  0  0
    1.6636   -0.7835   -1.0992 S   0  0  0  0  0  3  0  0  0  0  0  0
    1.6174    0.1250   -2.3334 O   0  0  0  0  0  1  0  0  0  0  0  0
    3.3051   -0.4682   -0.3688 C   0  0  0  0  0  0  0  0  0  0  0  0
    3.6265   -0.9597    0.9070 C   0  0  0  0  0  0  0  0  0  0  0  0
    2.8819   -1.5132    1.4991 H   0  0  0  0  0  0  0  0  0  0  0  0
    4.9118   -0.7308    1.4193 C   0  0  0  0  0  0  0  0  0  0  0  0
    5.1790   -1.1076    2.4181 H   0  0  0  0  0  0  0  0  0  0  0  0
    5.8576   -0.0220    0.6580 C   0  0  0  0  0  0  0  0  0  0  0  0
    6.8657    0.1524    1.0626 H   0  0  0  0  0  0  0  0  0  0  0  0
    5.5223    0.4569   -0.6185 C   0  0  0  0  0  0  0  0  0  0  0  0
    6.2661    1.0074   -1.2140 H   0  0  0  0  0  0  0  0  0  0  0  0
    4.2397    0.2303   -1.1429 C   0  0  0  0  0  0  0  0  0  0  0  0
    3.9428    0.5874   -2.1409 H   0  0  0  0  0  0  0  0  0  0  0  0
  2  4  1  0  0  0  0
  2  1  1  0  0  0  0
  3  2  1  0  0  0  0
  4  5  1  0  0  0  0
  5  7  2  0  0  0  0
  5  6  1  0  0  0  0
  7  8  1  0  0  0  0
  9 10  1  0  0  0  0
  9  7  1  0  0  0  0
 11  9  2  0  0  0  0
 12 11  1  0  0  0  0
 13 11  1  0  0  0  0
 13  4  2  0  0  0  0
 14 13  1  0  0  0  0
M  END
