1
 OpenBabel05122313063D

 60 62  0  0  0  0  0  0  0  0999 V2000
    0.0084   -1.3171    0.3798 O   0  5  0  0  0  0  0  0  0  0  0  0
    1.1308   -0.5647    0.3046 C   0  0  0  0  0  0  0  0  0  0  0  0
    1.0160    0.8410    0.4881 C   0  0  0  0  0  0  0  0  0  0  0  0
    2.1672    1.6464    0.4067 C   0  0  0  0  0  0  0  0  0  0  0  0
    3.4297    1.1029    0.1387 C   0  0  0  0  0  0  0  0  0  0  0  0
    3.5093   -0.2982   -0.0104 C   0  0  0  0  0  0  0  0  0  0  0  0
    2.4086   -1.1664    0.0763 C   0  0  0  0  0  0  0  0  0  0  0  0
   -0.2890    1.4614    0.8137 C   0  0  0  0  0  0  0  0  0  0  0  0
   -0.9268    1.3045    2.0201 C   0  0  0  0  0  0  0  0  0  0  0  0
   -2.2348    2.0522    2.0072 C   0  0  0  0  0  0  0  0  0  0  0  0
   -2.2771    2.6841    0.6422 C   0  0  0  0  0  0  0  0  0  0  0  0
   -3.2965    3.4600    0.0718 C   0  0  0  0  0  0  0  0  0  0  0  0
   -3.0869    3.9086   -1.2500 C   0  0  0  0  0  0  0  0  0  0  0  0
   -1.9082    3.5987   -1.9447 C   0  0  0  0  0  0  0  0  0  0  0  0
   -0.8734    2.8215   -1.3807 C   0  0  0  0  0  0  0  0  0  0  0  0
   -1.0874    2.3469   -0.0621 C   0  0  0  0  0  0  0  0  0  0  0  0
    4.7008    1.9593    0.0139 C   0  0  0  0  0  0  0  0  0  0  0  0
    5.7252    1.5171    1.0833 C   0  0  0  0  0  0  0  0  0  0  0  0
    5.3051    1.7604   -1.3951 C   0  0  0  0  0  0  0  0  0  0  0  0
    4.4079    3.4568    0.2090 C   0  0  0  0  0  0  0  0  0  0  0  0
    2.5967   -2.6916   -0.0469 C   0  0  0  0  0  0  0  0  0  0  0  0
    4.0821   -3.0763   -0.1895 C   0  0  0  0  0  0  0  0  0  0  0  0
    2.0587   -3.3856    1.2267 C   0  0  0  0  0  0  0  0  0  0  0  0
    1.8636   -3.2139   -1.3030 C   0  0  0  0  0  0  0  0  0  0  0  0
   -0.4452    0.5232    3.1955 C   0  0  0  0  0  0  0  0  0  0  0  0
   -4.5511    3.7838    0.8402 C   0  0  0  0  0  0  0  0  0  0  0  0
    0.3840    2.5694   -2.1778 C   0  0  0  0  0  0  0  0  0  0  0  0
    2.0379    2.7250    0.5653 H   0  0  0  0  0  0  0  0  0  0  0  0
    4.4962   -0.7391   -0.1971 H   0  0  0  0  0  0  0  0  0  0  0  0
   -3.8640    4.5136   -1.7432 H   0  0  0  0  0  0  0  0  0  0  0  0
   -1.7813    3.9729   -2.9733 H   0  0  0  0  0  0  0  0  0  0  0  0
    6.6534    2.1203    1.0045 H   0  0  0  0  0  0  0  0  0  0  0  0
    6.0062    0.4514    0.9687 H   0  0  0  0  0  0  0  0  0  0  0  0
    5.3130    1.6496    2.1040 H   0  0  0  0  0  0  0  0  0  0  0  0
    4.5870    2.0719   -2.1806 H   0  0  0  0  0  0  0  0  0  0  0  0
    5.5716    0.7012   -1.5828 H   0  0  0  0  0  0  0  0  0  0  0  0
    6.2279    2.3659   -1.5110 H   0  0  0  0  0  0  0  0  0  0  0  0
    3.9929    3.6685    1.2148 H   0  0  0  0  0  0  0  0  0  0  0  0
    3.6911    3.8379   -0.5464 H   0  0  0  0  0  0  0  0  0  0  0  0
    5.3445    4.0405    0.1042 H   0  0  0  0  0  0  0  0  0  0  0  0
    4.5390   -2.6604   -1.1103 H   0  0  0  0  0  0  0  0  0  0  0  0
    4.1655   -4.1797   -0.2498 H   0  0  0  0  0  0  0  0  0  0  0  0
    4.6845   -2.7441    0.6799 H   0  0  0  0  0  0  0  0  0  0  0  0
    2.6010   -3.0224    2.1233 H   0  0  0  0  0  0  0  0  0  0  0  0
    2.2124   -4.4818    1.1534 H   0  0  0  0  0  0  0  0  0  0  0  0
    0.9784   -3.2104    1.3740 H   0  0  0  0  0  0  0  0  0  0  0  0
    0.7744   -3.0553   -1.2360 H   0  0  0  0  0  0  0  0  0  0  0  0
    2.0268   -4.3055   -1.4143 H   0  0  0  0  0  0  0  0  0  0  0  0
    2.2448   -2.7121   -2.2159 H   0  0  0  0  0  0  0  0  0  0  0  0
    0.5979    0.1794    3.0566 H   0  0  0  0  0  0  0  0  0  0  0  0
   -1.0836   -0.3718    3.3566 H   0  0  0  0  0  0  0  0  0  0  0  0
   -0.4965    1.1273    4.1264 H   0  0  0  0  0  0  0  0  0  0  0  0
   -2.2968    2.8044    2.8268 H   0  0  0  0  0  0  0  0  0  0  0  0
   -3.0853    1.3517    2.1731 H   0  0  0  0  0  0  0  0  0  0  0  0
   -5.0755    2.8614    1.1691 H   0  0  0  0  0  0  0  0  0  0  0  0
   -5.2596    4.3805    0.2341 H   0  0  0  0  0  0  0  0  0  0  0  0
   -4.3240    4.3597    1.7626 H   0  0  0  0  0  0  0  0  0  0  0  0
    1.2117    3.2341   -1.8498 H   0  0  0  0  0  0  0  0  0  0  0  0
    0.2110    2.7637   -3.2544 H   0  0  0  0  0  0  0  0  0  0  0  0
    0.7731    1.5391   -2.0658 H   0  0  0  0  0  0  0  0  0  0  0  0
  2  1  1  0  0  0  0
  2  3  1  0  0  0  0
  3  8  1  0  0  0  0
  4  3  2  0  0  0  0
  4 28  1  0  0  0  0
  5  4  1  0  0  0  0
  6  7  1  0  0  0  0
  6  5  2  0  0  0  0
  7  2  2  0  0  0  0
  8  9  2  0  0  0  0
  9 25  1  0  0  0  0
 10  9  1  0  0  0  0
 10 54  1  0  0  0  0
 10 53  1  0  0  0  0
 11 10  1  0  0  0  0
 12 11  1  0  0  0  0
 12 26  1  0  0  0  0
 13 12  2  0  0  0  0
 14 15  2  0  0  0  0
 14 13  1  0  0  0  0
 15 16  1  0  0  0  0
 16 11  2  0  0  0  0
 16  8  1  0  0  0  0
 17  5  1  0  0  0  0
 17 20  1  0  0  0  0
 17 18  1  0  0  0  0
 18 34  1  0  0  0  0
 19 17  1  0  0  0  0
 20 38  1  0  0  0  0
 21  7  1  0  0  0  0
 21 23  1  0  0  0  0
 22 21  1  0  0  0  0
 22 43  1  0  0  0  0
 23 46  1  0  0  0  0
 23 44  1  0  0  0  0
 24 47  1  0  0  0  0
 24 21  1  0  0  0  0
 25 51  1  0  0  0  0
 25 52  1  0  0  0  0
 26 55  1  0  0  0  0
 26 57  1  0  0  0  0
 27 60  1  0  0  0  0
 27 58  1  0  0  0  0
 27 15  1  0  0  0  0
 29  6  1  0  0  0  0
 30 13  1  0  0  0  0
 31 14  1  0  0  0  0
 32 18  1  0  0  0  0
 33 18  1  0  0  0  0
 35 19  1  0  0  0  0
 36 19  1  0  0  0  0
 37 19  1  0  0  0  0
 39 20  1  0  0  0  0
 40 20  1  0  0  0  0
 41 22  1  0  0  0  0
 42 22  1  0  0  0  0
 45 23  1  0  0  0  0
 48 24  1  0  0  0  0
 49 24  1  0  0  0  0
 50 25  1  0  0  0  0
 56 26  1  0  0  0  0
 59 27  1  0  0  0  0
M  CHG  1   1  -1
M  END
