1
 OpenBabel05122313063D

 62 66  0  0  0  0  0  0  0  0999 V2000
    0.0703   -0.5694   -0.6449 O   0  5  0  0  0  0  0  0  0  0  0  0
   -0.1759    4.5054    1.4890 O   0  0  0  0  0  0  0  0  0  0  0  0
   -0.0140    0.6656   -0.1146 C   0  0  0  0  0  0  0  0  0  0  0  0
    1.1784    1.3976    0.1433 C   0  0  0  0  0  0  0  0  0  0  0  0
    1.0716    2.6817    0.6843 C   0  0  0  0  0  0  0  0  0  0  0  0
    1.9717    3.2828    0.8757 H   0  0  0  0  0  0  0  0  0  0  0  0
   -0.1894    3.2511    0.9608 C   0  0  0  0  0  0  0  0  0  0  0  0
   -1.3626    2.5329    0.6599 C   0  0  0  0  0  0  0  0  0  0  0  0
   -2.3553    2.9749    0.8137 H   0  0  0  0  0  0  0  0  0  0  0  0
   -1.2876    1.2401    0.1144 C   0  0  0  0  0  0  0  0  0  0  0  0
    2.5215    0.7603   -0.1932 C   0  0  0  0  0  0  0  0  0  0  0  0
    2.3540    0.1443   -1.1010 H   0  0  0  0  0  0  0  0  0  0  0  0
    3.0081   -0.2030    0.8849 C   0  0  0  0  0  0  0  0  0  0  0  0
    3.9029   -1.2325    0.5252 C   0  0  0  0  0  0  0  0  0  0  0  0
    4.1986   -1.3405   -0.5294 H   0  0  0  0  0  0  0  0  0  0  0  0
    4.3936   -2.1243    1.4885 C   0  0  0  0  0  0  0  0  0  0  0  0
    5.0855   -2.9265    1.1888 H   0  0  0  0  0  0  0  0  0  0  0  0
    3.9997   -2.0008    2.8324 C   0  0  0  0  0  0  0  0  0  0  0  0
    4.3805   -2.7038    3.5885 H   0  0  0  0  0  0  0  0  0  0  0  0
    3.1124   -0.9780    3.2009 C   0  0  0  0  0  0  0  0  0  0  0  0
    2.7951   -0.8746    4.2499 H   0  0  0  0  0  0  0  0  0  0  0  0
    2.6195   -0.0859    2.2329 C   0  0  0  0  0  0  0  0  0  0  0  0
    1.9140    0.7071    2.5233 H   0  0  0  0  0  0  0  0  0  0  0  0
    3.5759    1.8003   -0.5600 C   0  0  0  0  0  0  0  0  0  0  0  0
    4.4928    2.3030    0.3826 C   0  0  0  0  0  0  0  0  0  0  0  0
    4.4868    1.9055    1.4089 H   0  0  0  0  0  0  0  0  0  0  0  0
    5.4185    3.2951    0.0210 C   0  0  0  0  0  0  0  0  0  0  0  0
    6.1290    3.6769    0.7702 H   0  0  0  0  0  0  0  0  0  0  0  0
    5.4435    3.7941   -1.2900 C   0  0  0  0  0  0  0  0  0  0  0  0
    6.1722    4.5683   -1.5746 H   0  0  0  0  0  0  0  0  0  0  0  0
    4.5374    3.2932   -2.2394 C   0  0  0  0  0  0  0  0  0  0  0  0
    4.5545    3.6722   -3.2727 H   0  0  0  0  0  0  0  0  0  0  0  0
    3.6123    2.3051   -1.8753 C   0  0  0  0  0  0  0  0  0  0  0  0
    2.9020    1.9122   -2.6202 H   0  0  0  0  0  0  0  0  0  0  0  0
   -1.4170    5.1365    1.7432 C   0  0  0  0  0  0  0  0  0  0  0  0
   -1.1820    6.1338    2.1586 H   0  0  0  0  0  0  0  0  0  0  0  0
   -2.0271    4.5702    2.4827 H   0  0  0  0  0  0  0  0  0  0  0  0
   -2.0171    5.2616    0.8141 H   0  0  0  0  0  0  0  0  0  0  0  0
   -2.5370    0.4449   -0.2488 C   0  0  0  0  0  0  0  0  0  0  0  0
   -2.2813   -0.1401   -1.1566 H   0  0  0  0  0  0  0  0  0  0  0  0
   -2.9226   -0.5754    0.8171 C   0  0  0  0  0  0  0  0  0  0  0  0
   -3.6704   -1.7096    0.4377 C   0  0  0  0  0  0  0  0  0  0  0  0
   -3.9226   -1.8541   -0.6238 H   0  0  0  0  0  0  0  0  0  0  0  0
   -4.0675   -2.6575    1.3907 C   0  0  0  0  0  0  0  0  0  0  0  0
   -4.6440   -3.5410    1.0757 H   0  0  0  0  0  0  0  0  0  0  0  0
   -3.7251   -2.4867    2.7433 C   0  0  0  0  0  0  0  0  0  0  0  0
   -4.0317   -3.2334    3.4913 H   0  0  0  0  0  0  0  0  0  0  0  0
   -2.9828   -1.3607    3.1313 C   0  0  0  0  0  0  0  0  0  0  0  0
   -2.7052   -1.2203    4.1872 H   0  0  0  0  0  0  0  0  0  0  0  0
   -2.5837   -0.4122    2.1738 C   0  0  0  0  0  0  0  0  0  0  0  0
   -1.9892    0.4623    2.4789 H   0  0  0  0  0  0  0  0  0  0  0  0
   -3.6990    1.3583   -0.6290 C   0  0  0  0  0  0  0  0  0  0  0  0
   -3.7412    1.9074   -1.9265 C   0  0  0  0  0  0  0  0  0  0  0  0
   -2.9585    1.6314   -2.6510 H   0  0  0  0  0  0  0  0  0  0  0  0
   -4.7601    2.7953   -2.2976 C   0  0  0  0  0  0  0  0  0  0  0  0
   -4.7795    3.2102   -3.3170 H   0  0  0  0  0  0  0  0  0  0  0  0
   -5.7571    3.1502   -1.3734 C   0  0  0  0  0  0  0  0  0  0  0  0
   -6.5597    3.8451   -1.6640 H   0  0  0  0  0  0  0  0  0  0  0  0
   -5.7278    2.6050   -0.0811 C   0  0  0  0  0  0  0  0  0  0  0  0
   -6.5098    2.8699    0.6472 H   0  0  0  0  0  0  0  0  0  0  0  0
   -4.7073    1.7130    0.2876 C   0  0  0  0  0  0  0  0  0  0  0  0
   -4.6967    1.2779    1.2985 H   0  0  0  0  0  0  0  0  0  0  0  0
  1  3  1  0  0  0  0
  2 35  1  0  0  0  0
  3 10  2  0  0  0  0
  3  4  1  0  0  0  0
  4  5  2  0  0  0  0
  5  6  1  0  0  0  0
  5  7  1  0  0  0  0
  7  2  1  0  0  0  0
  8  9  1  0  0  0  0
  8  7  2  0  0  0  0
 10  8  1  0  0  0  0
 11  4  1  0  0  0  0
 11 13  1  0  0  0  0
 12 11  1  0  0  0  0
 13 22  1  0  0  0  0
 14 13  2  0  0  0  0
 14 16  1  0  0  0  0
 15 14  1  0  0  0  0
 16 18  2  0  0  0  0
 17 16  1  0  0  0  0
 18 20  1  0  0  0  0
 18 19  1  0  0  0  0
 20 21  1  0  0  0  0
 22 23  1  0  0  0  0
 22 20  2  0  0  0  0
 24 11  1  0  0  0  0
 24 25  1  0  0  0  0
 25 26  1  0  0  0  0
 27 25  2  0  0  0  0
 27 28  1  0  0  0  0
 29 27  1  0  0  0  0
 30 29  1  0  0  0  0
 31 33  1  0  0  0  0
 31 29  2  0  0  0  0
 32 31  1  0  0  0  0
 33 24  2  0  0  0  0
 34 33  1  0  0  0  0
 35 36  1  0  0  0  0
 35 37  1  0  0  0  0
 38 35  1  0  0  0  0
 39 10  1  0  0  0  0
 39 41  1  0  0  0  0
 40 39  1  0  0  0  0
 41 50  1  0  0  0  0
 42 41  2  0  0  0  0
 42 44  1  0  0  0  0
 43 42  1  0  0  0  0
 44 46  2  0  0  0  0
 45 44  1  0  0  0  0
 46 48  1  0  0  0  0
 46 47  1  0  0  0  0
 48 49  1  0  0  0  0
 50 51  1  0  0  0  0
 50 48  2  0  0  0  0
 52 39  1  0  0  0  0
 52 61  1  0  0  0  0
 53 52  2  0  0  0  0
 54 53  1  0  0  0  0
 55 53  1  0  0  0  0
 55 57  2  0  0  0  0
 56 55  1  0  0  0  0
 57 59  1  0  0  0  0
 58 57  1  0  0  0  0
 59 61  2  0  0  0  0
 59 60  1  0  0  0  0
 61 62  1  0  0  0  0
M  CHG  1   1  -1
M  END
