1
 OpenBabel05122313063D

 20 19  0  0  0  0  0  0  0  0999 V2000
    0.0255    2.0337   -0.6363 O   0  0  0  0  0  1  0  0  0  0  0  0
    1.9196    3.3101   -0.8100 N   0  0  0  0  0  0  0  0  0  0  0  0
    0.4698    3.5727    1.0237 N   0  0  0  0  0  0  0  0  0  0  0  0
    0.7832    2.9192   -0.1505 C   0  0  0  0  0  3  0  0  0  0  0  0
    2.4169    2.5244   -1.9291 C   0  0  0  0  0  0  0  0  0  0  0  0
    3.4749    2.2338   -1.7567 H   0  0  0  0  0  0  0  0  0  0  0  0
    2.3622    3.1173   -2.8681 H   0  0  0  0  0  0  0  0  0  0  0  0
    1.8098    1.6121   -2.0454 H   0  0  0  0  0  0  0  0  0  0  0  0
    2.5630    4.5936   -0.5936 C   0  0  0  0  0  0  0  0  0  0  0  0
    2.7670    5.0673   -1.5774 H   0  0  0  0  0  0  0  0  0  0  0  0
    3.5328    4.5048   -0.0552 H   0  0  0  0  0  0  0  0  0  0  0  0
    1.8958    5.2593   -0.0170 H   0  0  0  0  0  0  0  0  0  0  0  0
   -0.9189    3.5457    1.4689 C   0  0  0  0  0  0  0  0  0  0  0  0
   -1.1131    4.4584    2.0690 H   0  0  0  0  0  0  0  0  0  0  0  0
   -1.1378    2.6453    2.0796 H   0  0  0  0  0  0  0  0  0  0  0  0
   -1.5898    3.5437    0.5929 H   0  0  0  0  0  0  0  0  0  0  0  0
    1.4515    3.7317    2.0912 C   0  0  0  0  0  0  0  0  0  0  0  0
    1.4867    4.7762    2.4704 H   0  0  0  0  0  0  0  0  0  0  0  0
    2.4578    3.4451    1.7384 H   0  0  0  0  0  0  0  0  0  0  0  0
    1.1882    3.0479    2.9268 H   0  0  0  0  0  0  0  0  0  0  0  0
  1  4  1  0  0  0  0
  2  9  1  0  0  0  0
  2  4  1  0  0  0  0
  3 13  1  0  0  0  0
  3 17  1  0  0  0  0
  4  3  1  0  0  0  0
  5  6  1  0  0  0  0
  5  2  1  0  0  0  0
  7  5  1  0  0  0  0
  8  5  1  0  0  0  0
  9 11  1  0  0  0  0
  9 12  1  0  0  0  0
 10  9  1  0  0  0  0
 13 14  1  0  0  0  0
 13 15  1  0  0  0  0
 16 13  1  0  0  0  0
 17 18  1  0  0  0  0
 17 20  1  0  0  0  0
 19 17  1  0  0  0  0
M  END
