2
 OpenBabel05122313063D

 14 13  0  0  0  0  0  0  0  0999 V2000
   -2.2666    1.3606    0.9912 P   0  0  2  0  0  0  0  0  0  0  0  0
   -1.4262    0.0146    0.9758 O   0  0  0  0  0  1  0  0  0  0  0  0
   -2.4963    1.8272   -0.5928 O   0  0  0  0  0  0  0  0  0  0  0  0
   -2.8865    1.0568   -1.1017 H   0  0  0  0  0  0  0  0  0  0  0  0
   -1.7203    2.5240    1.7733 O   0  0  0  0  0  0  0  0  0  0  0  0
   -3.4748   -2.1526    0.1762 O   0  5  0  0  0  0  0  0  0  0  0  0
   -3.3299   -0.5689   -1.4409 O   0  0  0  0  0  0  0  0  0  0  0  0
   -3.9234    0.7393    1.5197 C   0  0  0  0  0  0  0  0  0  0  0  0
   -3.7143    0.1197    2.4153 H   0  0  0  0  0  0  0  0  0  0  0  0
   -4.5364    1.6041    1.8436 H   0  0  0  0  0  0  0  0  0  0  0  0
   -4.6919   -0.0924    0.4586 C   0  0  0  0  0  0  0  0  0  0  0  0
   -5.4749   -0.6918    0.9645 H   0  0  0  0  0  0  0  0  0  0  0  0
   -5.1810    0.5898   -0.2638 H   0  0  0  0  0  0  0  0  0  0  0  0
   -3.7744   -1.0364   -0.3204 C   0  0  0  0  0  0  0  0  0  0  0  0
  1  2  1  1  0  0  0
  1  8  1  0  0  0  0
  1  5  2  0  0  0  0
  3  1  1  0  0  0  0
  4  3  1  0  0  0  0
  7 14  2  0  0  0  0
  8 10  1  0  0  0  0
  8  9  1  0  0  0  0
 11 12  1  0  0  0  0
 11  8  1  0  0  0  0
 13 11  1  0  0  0  0
 14  6  1  0  0  0  0
 14 11  1  0  0  0  0
M  CHG  1   6  -1
M  END
