2
 OpenBabel05122313063D

 42 43  0  0  0  0  0  0  0  0999 V2000
    0.8566    0.0734    0.1421 B   0  0  0  0  0  0  0  0  0  0  0  0
   -0.4073   -0.4155    0.2084 O   0  0  0  0  0  1  0  0  0  0  0  0
    1.0809    1.6542    0.0787 C   0  0  0  0  0  0  0  0  0  0  0  0
    0.6147    2.5424    1.0837 C   0  0  0  0  0  0  0  0  0  0  0  0
    0.7637    3.9356    0.9266 C   0  0  0  0  0  0  0  0  0  0  0  0
    0.3968    4.6059    1.7222 H   0  0  0  0  0  0  0  0  0  0  0  0
    1.3633    4.4920   -0.2128 C   0  0  0  0  0  0  0  0  0  0  0  0
    1.8319    3.6057   -1.2018 C   0  0  0  0  0  0  0  0  0  0  0  0
    2.3061    4.0166   -2.1088 H   0  0  0  0  0  0  0  0  0  0  0  0
    1.7137    2.2117   -1.0736 C   0  0  0  0  0  0  0  0  0  0  0  0
   -0.0065    2.0377    2.3648 C   0  0  0  0  0  0  0  0  0  0  0  0
    0.7033    2.1359    3.2137 H   0  0  0  0  0  0  0  0  0  0  0  0
   -0.2925    0.9754    2.2873 H   0  0  0  0  0  0  0  0  0  0  0  0
   -0.9094    2.6226    2.6368 H   0  0  0  0  0  0  0  0  0  0  0  0
    1.5149    5.9829   -0.3796 C   0  0  0  0  0  0  0  0  0  0  0  0
    2.5853    6.2761   -0.4192 H   0  0  0  0  0  0  0  0  0  0  0  0
    1.0438    6.5386    0.4543 H   0  0  0  0  0  0  0  0  0  0  0  0
    1.0544    6.3327   -1.3269 H   0  0  0  0  0  0  0  0  0  0  0  0
    2.2552    1.3339   -2.1794 C   0  0  0  0  0  0  0  0  0  0  0  0
    2.6207    1.9421   -3.0291 H   0  0  0  0  0  0  0  0  0  0  0  0
    1.4903    0.6333   -2.5721 H   0  0  0  0  0  0  0  0  0  0  0  0
    3.0921    0.7013   -1.8197 H   0  0  0  0  0  0  0  0  0  0  0  0
    2.0779   -0.9468    0.1110 C   0  0  0  0  0  0  0  0  0  0  0  0
    3.0972   -0.8532    1.1082 C   0  0  0  0  0  0  0  0  0  0  0  0
    4.1727   -1.7551    1.0990 C   0  0  0  0  0  0  0  0  0  0  0  0
    4.9410   -1.6749    1.8864 H   0  0  0  0  0  0  0  0  0  0  0  0
    4.2982   -2.7570    0.1167 C   0  0  0  0  0  0  0  0  0  0  0  0
    3.3004   -2.8338   -0.8641 C   0  0  0  0  0  0  0  0  0  0  0  0
    3.3778   -3.6044   -1.6496 H   0  0  0  0  0  0  0  0  0  0  0  0
    2.1961   -1.9564   -0.8807 C   0  0  0  0  0  0  0  0  0  0  0  0
    3.0393    0.1880    2.2035 C   0  0  0  0  0  0  0  0  0  0  0  0
    3.0656    1.2178    1.7926 H   0  0  0  0  0  0  0  0  0  0  0  0
    3.8882    0.0760    2.9053 H   0  0  0  0  0  0  0  0  0  0  0  0
    2.1056    0.1090    2.7981 H   0  0  0  0  0  0  0  0  0  0  0  0
    5.4664   -3.7105    0.1345 C   0  0  0  0  0  0  0  0  0  0  0  0
    6.4338   -3.1660    0.1253 H   0  0  0  0  0  0  0  0  0  0  0  0
    5.4510   -4.3930   -0.7374 H   0  0  0  0  0  0  0  0  0  0  0  0
    5.4621   -4.3352    1.0528 H   0  0  0  0  0  0  0  0  0  0  0  0
    1.2043   -2.1077   -2.0089 C   0  0  0  0  0  0  0  0  0  0  0  0
    1.6912   -1.9128   -2.9884 H   0  0  0  0  0  0  0  0  0  0  0  0
    0.3334   -1.4388   -1.9072 H   0  0  0  0  0  0  0  0  0  0  0  0
    0.7980   -3.1383   -2.0478 H   0  0  0  0  0  0  0  0  0  0  0  0
  1  2  1  0  0  0  0
  3  1  1  0  0  0  0
  3  4  1  0  0  0  0
  4 11  1  0  0  0  0
  5  4  2  0  0  0  0
  5  6  1  0  0  0  0
  7  5  1  0  0  0  0
  8 10  1  0  0  0  0
  8  7  2  0  0  0  0
  9  8  1  0  0  0  0
 10  3  2  0  0  0  0
 11 14  1  0  0  0  0
 11 12  1  0  0  0  0
 13 11  1  0  0  0  0
 15  7  1  0  0  0  0
 15 17  1  0  0  0  0
 16 15  1  0  0  0  0
 18 15  1  0  0  0  0
 19 22  1  0  0  0  0
 19 10  1  0  0  0  0
 20 19  1  0  0  0  0
 21 19  1  0  0  0  0
 23  1  1  0  0  0  0
 23 24  1  0  0  0  0
 24 31  1  0  0  0  0
 25 24  2  0  0  0  0
 25 26  1  0  0  0  0
 27 35  1  0  0  0  0
 27 25  1  0  0  0  0
 28 27  2  0  0  0  0
 29 28  1  0  0  0  0
 30 28  1  0  0  0  0
 30 23  2  0  0  0  0
 31 34  1  0  0  0  0
 31 33  1  0  0  0  0
 32 31  1  0  0  0  0
 35 38  1  0  0  0  0
 36 35  1  0  0  0  0
 37 35  1  0  0  0  0
 39 41  1  0  0  0  0
 39 30  1  0  0  0  0
 40 39  1  0  0  0  0
 42 39  1  0  0  0  0
M  END
