1
 OpenBabel05122313063D

 36 37  0  0  0  0  0  0  0  0999 V2000
   -0.9534   -1.2884   -1.2517 O   0  5  0  0  0  0  0  0  0  0  0  0
    0.4830   -1.8661   -0.9663 H   0  0  0  0  0  0  0  0  0  0  0  0
   -2.5255    2.8786   -3.0194 O   0  0  0  0  0  0  0  0  0  0  0  0
    1.5287   -1.6811   -1.0669 N   0  0  0  0  0  4  0  0  0  0  0  0
   -0.7272   -0.0918   -1.7116 C   0  0  0  0  0  0  0  0  0  0  0  0
   -1.7971    0.7381   -2.1435 C   0  0  0  0  0  0  0  0  0  0  0  0
   -2.8079    0.3150   -2.0486 H   0  0  0  0  0  0  0  0  0  0  0  0
   -1.5537    2.0347   -2.5963 C   0  0  0  0  0  0  0  0  0  0  0  0
   -0.2266    2.5635   -2.6240 C   0  0  0  0  0  0  0  0  0  0  0  0
   -0.0775    3.5957   -2.9695 H   0  0  0  0  0  0  0  0  0  0  0  0
    0.8322    1.7572   -2.2459 C   0  0  0  0  0  0  0  0  0  0  0  0
    1.8539    2.1620   -2.2772 H   0  0  0  0  0  0  0  0  0  0  0  0
    0.6392    0.4102   -1.8125 C   0  0  0  0  0  0  0  0  0  0  0  0
    1.7536   -0.4526   -1.5191 C   0  0  0  0  0  0  0  0  0  0  0  0
    3.1592    0.0000   -1.7206 C   0  0  0  0  0  0  0  0  0  0  0  0
    4.0365    0.0736   -0.6181 C   0  0  0  0  0  0  0  0  0  0  0  0
    3.6623   -0.1937    0.3817 H   0  0  0  0  0  0  0  0  0  0  0  0
    5.3593    0.5004   -0.7985 C   0  0  0  0  0  0  0  0  0  0  0  0
    6.0345    0.5647    0.0681 H   0  0  0  0  0  0  0  0  0  0  0  0
    5.8216    0.8444   -2.0792 C   0  0  0  0  0  0  0  0  0  0  0  0
    6.8618    1.1753   -2.2194 H   0  0  0  0  0  0  0  0  0  0  0  0
    4.9551    0.7647   -3.1809 C   0  0  0  0  0  0  0  0  0  0  0  0
    5.3151    1.0277   -4.1870 H   0  0  0  0  0  0  0  0  0  0  0  0
    3.6271    0.3498   -3.0044 C   0  0  0  0  0  0  0  0  0  0  0  0
    2.9444    0.2856   -3.8648 H   0  0  0  0  0  0  0  0  0  0  0  0
    2.4695   -2.7782   -0.9038 C   0  0  0  0  0  0  0  0  0  0  0  0
    2.6892   -2.9077    0.1776 H   0  0  0  0  0  0  0  0  0  0  0  0
    3.4276   -2.5156   -1.3954 H   0  0  0  0  0  0  0  0  0  0  0  0
    1.8702   -4.0633   -1.4760 C   0  0  0  0  0  0  0  0  0  0  0  0
    0.8683   -4.2655   -1.0404 H   0  0  0  0  0  0  0  0  0  0  0  0
    2.5309   -4.9247   -1.2556 H   0  0  0  0  0  0  0  0  0  0  0  0
    1.7491   -3.9906   -2.5754 H   0  0  0  0  0  0  0  0  0  0  0  0
   -3.8393    2.3508   -3.1930 C   0  0  0  0  0  0  0  0  0  0  0  0
   -3.8379    1.5250   -3.9364 H   0  0  0  0  0  0  0  0  0  0  0  0
   -4.4592    3.1863   -3.5658 H   0  0  0  0  0  0  0  0  0  0  0  0
   -4.2644    1.9648   -2.2435 H   0  0  0  0  0  0  0  0  0  0  0  0
  3  8  1  0  0  0  0
  4  2  1  0  0  0  0
  4 26  1  0  0  0  0
  5  1  1  0  0  0  0
  6  7  1  0  0  0  0
  6  5  2  0  0  0  0
  8  6  1  0  0  0  0
  9  8  2  0  0  0  0
  9 11  1  0  0  0  0
 10  9  1  0  0  0  0
 11 13  2  0  0  0  0
 12 11  1  0  0  0  0
 13  5  1  0  0  0  0
 13 14  1  0  0  0  0
 14  4  2  0  0  0  0
 15 14  1  0  0  0  0
 15 16  1  0  0  0  0
 16 17  1  0  0  0  0
 18 16  2  0  0  0  0
 18 19  1  0  0  0  0
 20 18  1  0  0  0  0
 21 20  1  0  0  0  0
 22 24  1  0  0  0  0
 22 20  2  0  0  0  0
 23 22  1  0  0  0  0
 24 15  2  0  0  0  0
 25 24  1  0  0  0  0
 26 27  1  0  0  0  0
 28 26  1  0  0  0  0
 29 31  1  0  0  0  0
 29 30  1  0  0  0  0
 29 26  1  0  0  0  0
 32 29  1  0  0  0  0
 33  3  1  0  0  0  0
 33 36  1  0  0  0  0
 34 33  1  0  0  0  0
 35 33  1  0  0  0  0
M  CHG  1   1  -1
M  END
