2
 OpenBabel05122313063D

  5  4  0  0  0  0  0  0  0  0999 V2000
    0.4318   -2.1453   -1.3439 O   0  0  0  0  0  0  0  0  0  0  0  0
    0.1728   -0.4244   -2.6841 O   0  0  0  0  0  1  0  0  0  0  0  0
   -0.9176   -2.2783   -3.1340 O   0  0  0  0  0  1  0  0  0  0  0  0
   -0.1737   -1.5882   -2.4995 N   0  0  0  0  0  0  0  0  0  0  0  0
   -0.3231   -2.7052   -0.8634 H   0  0  0  0  0  0  0  0  0  0  0  0
  1  5  1  0  0  0  0
  2  4  1  0  0  0  0
  3  4  1  0  0  0  0
  4  1  1  0  0  0  0
M  END
