1
 OpenBabel05122313063D

 22 23  0  0  0  0  0  0  0  0999 V2000
   -0.1976    1.2757    0.0097 O   0  5  0  0  0  0  0  0  0  0  0  0
   -0.0889    2.6037   -0.0843 C   0  0  0  0  0  0  0  0  0  0  0  0
    1.1488    3.2246    0.2052 C   0  0  0  0  0  0  0  0  0  0  0  0
    1.2815    4.6167    0.1675 C   0  0  0  0  0  0  0  0  0  0  0  0
    0.1777    5.4210   -0.1603 C   0  0  0  0  0  0  0  0  0  0  0  0
   -1.0441    4.8112   -0.4749 C   0  0  0  0  0  0  0  0  0  0  0  0
   -1.2091    3.4081   -0.4623 C   0  0  0  0  0  0  0  0  0  0  0  0
   -2.5064    2.8122   -0.8719 C   0  0  0  0  0  0  0  0  0  0  0  0
   -3.7301    3.3829   -0.4529 C   0  0  0  0  0  0  0  0  0  0  0  0
   -4.9580    2.8763   -0.9051 C   0  0  0  0  0  0  0  0  0  0  0  0
   -4.9900    1.7830   -1.7841 C   0  0  0  0  0  0  0  0  0  0  0  0
   -3.7826    1.1985   -2.2011 C   0  0  0  0  0  0  0  0  0  0  0  0
   -2.5575    1.7035   -1.7492 C   0  0  0  0  0  0  0  0  0  0  0  0
    2.0062    2.5832    0.4492 H   0  0  0  0  0  0  0  0  0  0  0  0
    2.2596    5.0691    0.3927 H   0  0  0  0  0  0  0  0  0  0  0  0
    0.2722    6.5165   -0.1943 H   0  0  0  0  0  0  0  0  0  0  0  0
   -1.9005    5.4330   -0.7789 H   0  0  0  0  0  0  0  0  0  0  0  0
   -3.7135    4.2353    0.2439 H   0  0  0  0  0  0  0  0  0  0  0  0
   -5.8973    3.3396   -0.5649 H   0  0  0  0  0  0  0  0  0  0  0  0
   -5.9526    1.3841   -2.1392 H   0  0  0  0  0  0  0  0  0  0  0  0
   -3.7903    0.3399   -2.8903 H   0  0  0  0  0  0  0  0  0  0  0  0
   -1.6207    1.2450   -2.0902 H   0  0  0  0  0  0  0  0  0  0  0  0
  2  1  1  0  0  0  0
  2  3  1  0  0  0  0
  3 14  1  0  0  0  0
  4  3  2  0  0  0  0
  4 15  1  0  0  0  0
  5  4  1  0  0  0  0
  6  7  1  0  0  0  0
  6  5  2  0  0  0  0
  7  2  2  0  0  0  0
  8  7  1  0  0  0  0
  8  9  1  0  0  0  0
  9 18  1  0  0  0  0
 10 19  1  0  0  0  0
 10  9  2  0  0  0  0
 11 10  1  0  0  0  0
 12 11  2  0  0  0  0
 12 13  1  0  0  0  0
 13  8  2  0  0  0  0
 16  5  1  0  0  0  0
 17  6  1  0  0  0  0
 20 11  1  0  0  0  0
 21 12  1  0  0  0  0
 22 13  1  0  0  0  0
M  CHG  1   1  -1
M  END
