7
 OpenBabel05122313063D

 10  9  0  0  0  0  0  0  0  0999 V2000
   -1.7626   -1.7040    2.1437 F   0  0  0  0  0  0  0  0  0  0  0  0
   -3.5161   -2.5630    1.1572 F   0  0  0  0  0  0  0  0  0  0  0  0
   -1.5265   -3.2890    0.6550 F   0  0  0  0  0  0  0  0  0  0  0  0
   -3.5965   -0.4174   -1.8234 F   0  0  0  0  0  0  0  0  0  0  0  0
   -3.1865   -2.5614   -1.6137 F   0  0  0  0  0  0  0  0  0  0  0  0
   -1.6690   -1.2162   -2.4394 F   0  0  0  0  0  0  0  0  0  0  0  0
   -1.5302   -0.0008    0.1681 O   0  0  0  0  0  0  0  0  0  0  0  0
   -2.1092   -1.1029   -0.1013 C   0  0  0  0  0  0  0  0  0  0  0  0
   -2.2318   -2.1691    0.9577 C   0  0  0  0  0  0  0  0  0  0  0  0
   -2.6380   -1.3388   -1.4858 C   0  0  0  0  0  0  0  0  0  0  0  0
  3  9  1  0  0  0  0
  4 10  1  0  0  0  0
  5 10  1  0  0  0  0
  6 10  1  0  0  0  0
  8  7  1  0  0  0  0
  8  9  1  0  0  0  0
  9  2  1  0  0  0  0
  9  1  1  0  0  0  0
 10  8  1  0  0  0  0
M  END
