7
 OpenBabel05122313063D

 21 22  0  0  1  0  0  0  0  0999 V2000
    4.8599    0.0801   -2.2492 Cl  0  0  0  0  0  0  0  0  0  0  0  0
    2.7935    2.2861   -0.3411 Cl  0  0  0  0  0  0  0  0  0  0  0  0
    5.4469    0.2506    0.5769 Cl  0  0  0  0  0  0  0  0  0  0  0  0
    4.7221   -2.9454   -0.5555 Cl  0  0  0  0  0  0  0  0  0  0  0  0
    2.9761   -2.5251    2.2623 Cl  0  0  0  0  0  0  0  0  0  0  0  0
    1.7258    0.6555    2.3087 Cl  0  0  0  0  0  0  0  0  0  0  0  0
   -0.0866    0.1489   -0.2986 O   0  5  0  0  0  0  0  0  0  0  0  0
    0.1711   -2.4376   -1.7262 O   0  5  0  0  0  0  0  0  0  0  0  0
   -0.0781    0.5096   -2.5509 O   0  0  0  0  0  0  0  0  0  0  0  0
    1.5212   -3.5061   -0.2453 O   0  0  0  0  0  0  0  0  0  0  0  0
    2.4719   -0.1437    0.9937 C   0  0  0  0  0  0  0  0  0  0  0  0
    3.5688   -1.6194   -0.4125 C   0  0  1  0  0  0  0  0  0  0  0  0
    2.3987   -1.6233   -1.4548 C   0  0  1  0  0  0  0  0  0  0  0  0
    2.8105   -1.9033   -2.4440 H   0  0  0  0  0  0  0  0  0  0  0  0
    2.9530   -1.4114    0.9737 C   0  0  0  0  0  0  0  0  0  0  0  0
    2.8003    0.5066   -0.3503 C   0  0  2  0  0  0  0  0  0  0  0  0
    1.2549   -2.6371   -1.1050 C   0  0  0  0  0  0  0  0  0  0  0  0
    0.4633    0.1825   -1.4841 C   0  0  0  0  0  0  0  0  0  0  0  0
    4.1838   -0.1878   -0.6124 C   0  0  0  0  0  0  0  0  0  0  0  0
    1.9644   -0.1172   -1.5001 C   0  0  2  0  0  0  0  0  0  0  0  0
    2.3189    0.3400   -2.4411 H   0  0  0  0  0  0  0  0  0  0  0  0
  1 19  1  0  0  0  0
  8 17  1  0  0  0  0
  9 18  2  0  0  0  0
 11  6  1  0  0  0  0
 12  4  1  6  0  0  0
 12 15  1  0  0  0  0
 13 14  1  6  0  0  0
 13 17  1  0  0  0  0
 13 12  1  0  0  0  0
 15 11  2  0  0  0  0
 15  5  1  0  0  0  0
 16  2  1  1  0  0  0
 16 11  1  0  0  0  0
 17 10  2  0  0  0  0
 18  7  1  0  0  0  0
 19 12  1  0  0  0  0
 19 16  1  0  0  0  0
 19  3  1  0  0  0  0
 20 21  1  6  0  0  0
 20 18  1  0  0  0  0
 20 13  1  0  0  0  0
 20 16  1  0  0  0  0
M  CHG  2   7  -1   8  -1
M  END
