7
 OpenBabel05122313063D

 20 21  0  0  0  0  0  0  0  0999 V2000
    3.4306    1.0304   -0.6540 N   0  0  0  0  0  0  0  0  0  0  0  0
    5.4202    1.1433   -0.0687 C   0  0  0  0  0  0  0  0  0  0  0  0
    2.4433   -1.5220   -0.8924 O   0  5  0  0  0  0  0  0  0  0  0  0
    4.6738    1.1797    1.0737 N   0  0  0  0  0  0  0  0  0  0  0  0
    4.6448    1.0442   -1.1673 N   0  0  0  0  0  2  0  0  0  0  0  0
    7.5523    1.3165    1.0477 N   0  0  0  0  0  0  0  0  0  0  0  0
    0.3715   -0.6795   -1.2259 O   0  0  0  0  0  0  0  0  0  0  0  0
    6.8892    1.2028   -0.1181 C   0  0  0  0  0  0  0  0  0  0  0  0
    3.4274    1.1033    0.6864 N   0  0  0  0  0  2  0  0  0  0  0  0
    8.9067    1.1914   -1.4281 N   0  0  0  0  0  0  0  0  0  0  0  0
    2.2114    0.8218   -1.4111 C   0  0  0  0  0  0  0  0  0  0  0  0
    2.4682    0.9415   -2.4799 H   0  0  0  0  0  0  0  0  0  0  0  0
    1.4682    1.5892   -1.1242 H   0  0  0  0  0  0  0  0  0  0  0  0
    7.5715    1.1395   -1.3563 C   0  0  0  0  0  0  0  0  0  0  0  0
    7.0074    1.0438   -2.2997 H   0  0  0  0  0  0  0  0  0  0  0  0
    1.6315   -0.5934   -1.1564 C   0  0  0  0  0  0  0  0  0  0  0  0
    8.8867    1.3663    0.9683 C   0  0  0  0  0  0  0  0  0  0  0  0
    9.4447    1.4589    1.9170 H   0  0  0  0  0  0  0  0  0  0  0  0
    9.5646    1.3051   -0.2636 C   0  0  0  0  0  0  0  0  0  0  0  0
   10.6672    1.3495   -0.3061 H   0  0  0  0  0  0  0  0  0  0  0  0
  1  9  1  0  0  0  0
  2  4  2  0  0  0  0
  5  1  1  0  0  0  0
  5  2  1  0  0  0  0
  7 16  2  0  0  0  0
  8  2  1  0  0  0  0
  8  6  2  0  0  0  0
  9  4  1  0  0  0  0
 10 14  2  0  0  0  0
 10 19  1  0  0  0  0
 11 16  1  0  0  0  0
 11 13  1  0  0  0  0
 11  1  1  0  0  0  0
 12 11  1  0  0  0  0
 14  8  1  0  0  0  0
 15 14  1  0  0  0  0
 16  3  1  0  0  0  0
 17  6  1  0  0  0  0
 17 18  1  0  0  0  0
 19 17  2  0  0  0  0
 20 19  1  0  0  0  0
M  CHG  1   3  -1
M  END
