1
 OpenBabel05122313063D

 18 17  0  0  0  0  0  0  0  0999 V2000
    1.9741   -0.4185   -0.2976 O   0  5  0  0  0  0  0  0  0  0  0  0
    2.8425    1.7000   -0.4184 O   0  0  0  0  0  0  0  0  0  0  0  0
    4.1911   -0.1285   -0.6465 N   0  0  0  0  0  0  0  0  0  0  0  0
    2.9457    0.4453   -0.4448 C   0  0  0  0  0  0  0  0  0  0  0  0
    5.3485    0.7544   -0.7521 C   0  0  0  0  0  0  0  0  0  0  0  0
    5.9041    1.2400    0.5900 C   0  0  0  0  0  0  0  0  0  0  0  0
    4.3688   -1.5737   -0.5892 C   0  0  0  0  0  0  0  0  0  0  0  0
    4.4931   -2.1459    0.8273 C   0  0  0  0  0  0  0  0  0  0  0  0
    6.1307    0.2106   -1.3233 H   0  0  0  0  0  0  0  0  0  0  0  0
    5.0436    1.6329   -1.3547 H   0  0  0  0  0  0  0  0  0  0  0  0
    6.7595    1.9287    0.4320 H   0  0  0  0  0  0  0  0  0  0  0  0
    6.2554    0.4005    1.2229 H   0  0  0  0  0  0  0  0  0  0  0  0
    5.1182    1.7925    1.1418 H   0  0  0  0  0  0  0  0  0  0  0  0
    3.5058   -2.0452   -1.1008 H   0  0  0  0  0  0  0  0  0  0  0  0
    5.2734   -1.8241   -1.1832 H   0  0  0  0  0  0  0  0  0  0  0  0
    4.5544   -3.2535    0.7998 H   0  0  0  0  0  0  0  0  0  0  0  0
    3.6076   -1.8652    1.4317 H   0  0  0  0  0  0  0  0  0  0  0  0
    5.3964   -1.7680    1.3463 H   0  0  0  0  0  0  0  0  0  0  0  0
  3  7  1  0  0  0  0
  3  4  1  0  0  0  0
  4  2  2  0  0  0  0
  4  1  1  0  0  0  0
  5  3  1  0  0  0  0
  5  6  1  0  0  0  0
  6 13  1  0  0  0  0
  6 12  1  0  0  0  0
  7  8  1  0  0  0  0
  8 18  1  0  0  0  0
  8 17  1  0  0  0  0
  9  5  1  0  0  0  0
 10  5  1  0  0  0  0
 11  6  1  0  0  0  0
 14  7  1  0  0  0  0
 15  7  1  0  0  0  0
 16  8  1  0  0  0  0
M  CHG  1   1  -1
M  END
