2
 OpenBabel05122313063D

 15 15  0  0  1  0  0  0  0  0999 V2000
   -0.3048    0.1946   -1.4518 S   0  0  0  0  0  1  0  0  0  0  0  0
    1.7088    0.8986    0.3223 O   0  0  0  0  0  1  0  0  0  0  0  0
    1.9328   -0.1768   -0.3665 C   0  0  1  0  0  3  0  0  0  0  0  0
    4.0954   -0.4043    0.8831 C   0  0  0  0  0  0  0  0  0  0  0  0
    3.8074    0.4885    1.4553 H   0  0  0  0  0  0  0  0  0  0  0  0
    1.1205   -0.6900   -1.2874 N   0  0  0  0  0  2  0  0  0  0  0  0
    3.2193   -0.8832   -0.1127 C   0  0  0  0  0  0  0  0  0  0  0  0
    3.5633   -2.0342   -0.8531 C   0  0  0  0  0  0  0  0  0  0  0  0
    2.8652   -2.3940   -1.6221 H   0  0  0  0  0  0  0  0  0  0  0  0
    5.6436   -2.2130    0.3932 C   0  0  0  0  0  0  0  0  0  0  0  0
    6.5923   -2.7348    0.5918 H   0  0  0  0  0  0  0  0  0  0  0  0
    5.3028   -1.0688    1.1333 C   0  0  0  0  0  0  0  0  0  0  0  0
    5.9826   -0.6942    1.9134 H   0  0  0  0  0  0  0  0  0  0  0  0
    4.7717   -2.6938   -0.5986 C   0  0  0  0  0  0  0  0  0  0  0  0
    5.0361   -3.5919   -1.1770 H   0  0  0  0  0  0  0  0  0  0  0  0
  1  6  1  0  0  0  0
  3  7  1  0  0  0  0
  3  2  1  6  0  0  0
  4 12  1  0  0  0  0
  4  5  1  0  0  0  0
  6  3  1  0  0  0  0
  7  4  2  0  0  0  0
  8 14  2  0  0  0  0
  8  7  1  0  0  0  0
  9  8  1  0  0  0  0
 10 11  1  0  0  0  0
 10 12  2  0  0  0  0
 12 13  1  0  0  0  0
 14 10  1  0  0  0  0
 15 14  1  0  0  0  0
M  END
