1
 OpenBabel05122313063D

 30 31  0  0  0  0  0  0  0  0999 V2000
   -0.5206   -0.7849   -1.3128 O   0  5  0  0  0  0  0  0  0  0  0  0
   -3.9313   -1.0748   -0.8580 O   0  0  0  0  0  0  0  0  0  0  0  0
   -2.3705    1.0090   -1.0811 N   0  0  0  0  0  4  0  0  0  0  0  0
   -2.0023    0.0137   -1.1007 H   0  0  0  0  0  0  0  0  0  0  0  0
    0.3238    0.1428   -1.6489 C   0  0  0  0  0  0  0  0  0  0  0  0
   -0.1048    1.5366   -1.7097 C   0  0  0  0  0  0  0  0  0  0  0  0
   -1.4370    1.8982   -1.3956 C   0  0  0  0  0  0  0  0  0  0  0  0
   -1.7228    2.9631   -1.4137 H   0  0  0  0  0  0  0  0  0  0  0  0
    1.6961   -0.1358   -1.9530 C   0  0  0  0  0  0  0  0  0  0  0  0
    2.0234   -1.1859   -1.8811 H   0  0  0  0  0  0  0  0  0  0  0  0
    0.8333    2.5578   -2.0558 C   0  0  0  0  0  0  0  0  0  0  0  0
    0.4818    3.6021   -2.0928 H   0  0  0  0  0  0  0  0  0  0  0  0
   -4.2182    2.5230   -0.4309 C   0  0  0  0  0  0  0  0  0  0  0  0
   -3.5684    3.4065   -0.4990 H   0  0  0  0  0  0  0  0  0  0  0  0
   -5.5542    2.6717   -0.0366 C   0  0  0  0  0  0  0  0  0  0  0  0
   -5.9516    3.6735    0.1805 H   0  0  0  0  0  0  0  0  0  0  0  0
   -4.5305    0.0956   -0.5767 C   0  0  0  0  0  0  0  0  0  0  0  0
   -3.6969    1.2473   -0.7057 C   0  0  0  0  0  0  0  0  0  0  0  0
    2.5695    0.8869   -2.2940 C   0  0  0  0  0  0  0  0  0  0  0  0
    3.6200    0.6426   -2.5171 H   0  0  0  0  0  0  0  0  0  0  0  0
    2.1510    2.2467   -2.3451 C   0  0  0  0  0  0  0  0  0  0  0  0
    2.8694    3.0344   -2.6125 H   0  0  0  0  0  0  0  0  0  0  0  0
   -5.8700    0.2561   -0.1746 C   0  0  0  0  0  0  0  0  0  0  0  0
   -6.5195   -0.6228   -0.0726 H   0  0  0  0  0  0  0  0  0  0  0  0
   -6.3737    1.5388    0.0917 C   0  0  0  0  0  0  0  0  0  0  0  0
   -7.4224    1.6499    0.4053 H   0  0  0  0  0  0  0  0  0  0  0  0
   -4.6569   -2.2925   -0.7132 C   0  0  0  0  0  0  0  0  0  0  0  0
   -5.4889   -2.3440   -1.4488 H   0  0  0  0  0  0  0  0  0  0  0  0
   -5.0576   -2.3952    0.3172 H   0  0  0  0  0  0  0  0  0  0  0  0
   -3.9184   -3.0966   -0.8755 H   0  0  0  0  0  0  0  0  0  0  0  0
  2 27  1  0  0  0  0
  2 17  1  0  0  0  0
  3 18  1  0  0  0  0
  4  3  1  0  0  0  0
  5  1  1  0  0  0  0
  6  5  1  0  0  0  0
  6  7  1  0  0  0  0
  7  3  2  0  0  0  0
  8  7  1  0  0  0  0
  9 10  1  0  0  0  0
  9  5  2  0  0  0  0
 11  6  2  0  0  0  0
 12 11  1  0  0  0  0
 13 15  1  0  0  0  0
 14 13  1  0  0  0  0
 15 25  2  0  0  0  0
 15 16  1  0  0  0  0
 17 23  2  0  0  0  0
 18 17  1  0  0  0  0
 18 13  2  0  0  0  0
 19  9  1  0  0  0  0
 20 19  1  0  0  0  0
 21 19  2  0  0  0  0
 21 11  1  0  0  0  0
 22 21  1  0  0  0  0
 23 24  1  0  0  0  0
 23 25  1  0  0  0  0
 25 26  1  0  0  0  0
 27 29  1  0  0  0  0
 28 27  1  0  0  0  0
 30 27  1  0  0  0  0
M  CHG  1   1  -1
M  END
