1
 OpenBabel05122313063D

 16 16  0  0  0  0  0  0  0  0999 V2000
    4.2973   -0.4508    0.0468 O   0  5  0  0  0  0  0  0  0  0  0  0
    2.4235    0.8472   -0.0773 O   0  0  0  0  0  0  0  0  0  0  0  0
    3.6440    0.7032   -0.0169 C   0  0  0  0  0  0  0  0  0  0  0  0
    4.2495    5.5885   -0.1766 N   0  0  0  0  0  0  0  0  0  0  0  0
    3.2667    5.6650    0.0868 H   0  0  0  0  0  0  0  0  0  0  0  0
    4.8151    6.3691    0.1578 H   0  0  0  0  0  0  0  0  0  0  0  0
    5.9814    1.7315    0.0554 C   0  0  0  0  0  0  0  0  0  0  0  0
    6.4115    0.7229    0.1029 H   0  0  0  0  0  0  0  0  0  0  0  0
    4.5818    1.8857   -0.0103 C   0  0  0  0  0  0  0  0  0  0  0  0
    6.7875    2.8788    0.0613 C   0  0  0  0  0  0  0  0  0  0  0  0
    4.0076    3.1661   -0.0692 C   0  0  0  0  0  0  0  0  0  0  0  0
    2.9101    3.2360   -0.1191 H   0  0  0  0  0  0  0  0  0  0  0  0
    4.8150    4.3246   -0.0650 C   0  0  0  0  0  0  0  0  0  0  0  0
    6.2212    4.1586    0.0025 C   0  0  0  0  0  0  0  0  0  0  0  0
    6.8700    5.0492    0.0058 H   0  0  0  0  0  0  0  0  0  0  0  0
    7.8827    2.7791    0.1150 H   0  0  0  0  0  0  0  0  0  0  0  0
  2  3  2  0  0  0  0
  3  9  1  0  0  0  0
  3  1  1  0  0  0  0
  4 13  1  0  0  0  0
  4  5  1  0  0  0  0
  4  6  1  0  0  0  0
  7 10  1  0  0  0  0
  7  8  1  0  0  0  0
  9  7  2  0  0  0  0
 10 16  1  0  0  0  0
 11 13  2  0  0  0  0
 11  9  1  0  0  0  0
 12 11  1  0  0  0  0
 13 14  1  0  0  0  0
 14 15  1  0  0  0  0
 14 10  2  0  0  0  0
M  CHG  1   1  -1
M  END
