1
 OpenBabel05122313063D

 26 28  0  0  0  0  0  0  0  0999 V2000
   -1.3363    0.9274   -1.2675 O   0  5  0  0  0  0  0  0  0  0  0  0
   -2.8215    0.1263    0.9837 N   0  0  0  0  0  0  0  0  0  0  0  0
   -1.8081   -0.1142    0.7962 H   0  0  0  0  0  0  0  0  0  0  0  0
   -4.9525    0.5566    0.7036 N   0  0  0  0  0  0  0  0  0  0  0  0
   -5.8220    0.8047    0.2307 H   0  0  0  0  0  0  0  0  0  0  0  0
   -2.3724    0.5474   -2.0141 C   0  0  0  0  0  0  0  0  0  0  0  0
   -2.2816    0.4782   -3.4243 C   0  0  0  0  0  0  0  0  0  0  0  0
   -1.3026    0.6682   -3.8879 H   0  0  0  0  0  0  0  0  0  0  0  0
   -3.4019    0.1774   -4.1991 C   0  0  0  0  0  0  0  0  0  0  0  0
   -3.3054    0.1262   -5.2941 H   0  0  0  0  0  0  0  0  0  0  0  0
   -4.6525   -0.0697   -3.5938 C   0  0  0  0  0  0  0  0  0  0  0  0
   -5.5291   -0.3189   -4.2080 H   0  0  0  0  0  0  0  0  0  0  0  0
   -4.7629   -0.0168   -2.2058 C   0  0  0  0  0  0  0  0  0  0  0  0
   -5.7290   -0.2581   -1.7350 H   0  0  0  0  0  0  0  0  0  0  0  0
   -3.6376    0.2840   -1.3946 C   0  0  0  0  0  0  0  0  0  0  0  0
   -3.7764    0.3264    0.0459 C   0  0  0  0  0  3  0  0  0  0  0  0
   -4.7551    0.5059    2.0795 C   0  0  0  0  0  0  0  0  0  0  0  0
   -5.6186    0.6773    3.1702 C   0  0  0  0  0  0  0  0  0  0  0  0
   -6.6868    0.8979    3.0357 H   0  0  0  0  0  0  0  0  0  0  0  0
   -5.0505    0.5521    4.4449 C   0  0  0  0  0  0  0  0  0  0  0  0
   -5.6907    0.6779    5.3300 H   0  0  0  0  0  0  0  0  0  0  0  0
   -3.6757    0.2658    4.6219 C   0  0  0  0  0  0  0  0  0  0  0  0
   -3.2764    0.1724    5.6422 H   0  0  0  0  0  0  0  0  0  0  0  0
   -2.8110    0.0974    3.5331 C   0  0  0  0  0  0  0  0  0  0  0  0
   -1.7441   -0.1303    3.6671 H   0  0  0  0  0  0  0  0  0  0  0  0
   -3.3751    0.2248    2.2543 C   0  0  0  0  0  0  0  0  0  0  0  0
  2 26  1  0  0  0  0
  3  2  1  0  0  0  0
  4 17  1  0  0  0  0
  5  4  1  0  0  0  0
  6 15  1  0  0  0  0
  6  1  1  0  0  0  0
  7  6  2  0  0  0  0
  8  7  1  0  0  0  0
  9 11  2  0  0  0  0
  9  7  1  0  0  0  0
 10  9  1  0  0  0  0
 11 13  1  0  0  0  0
 12 11  1  0  0  0  0
 13 14  1  0  0  0  0
 13 15  2  0  0  0  0
 15 16  1  0  0  0  0
 16  4  1  0  0  0  0
 16  2  1  0  0  0  0
 17 26  2  0  0  0  0
 17 18  1  0  0  0  0
 18 20  2  0  0  0  0
 19 18  1  0  0  0  0
 20 22  1  0  0  0  0
 20 21  1  0  0  0  0
 22 23  1  0  0  0  0
 24 25  1  0  0  0  0
 24 22  2  0  0  0  0
 26 24  1  0  0  0  0
M  CHG  1   1  -1
M  END
