1
 OpenBabel05122313063D

  6  5  0  0  0  0  0  0  0  0999 V2000
    0.9120   -1.6433   -1.3313 O   0  0  0  0  0  1  0  0  0  0  0  0
   -0.3225   -3.7861   -0.5518 O   0  0  0  0  0  0  0  0  0  0  0  0
   -0.8542   -3.5285    0.2551 H   0  0  0  0  0  0  0  0  0  0  0  0
    1.1806   -3.0244   -0.5389 P   0  0  0  0  0  0  0  0  0  0  0  0
    1.9176   -3.9227   -1.7437 O   0  0  0  0  0  0  0  0  0  0  0  0
    1.5768   -3.5654   -2.5925 H   0  0  0  0  0  0  0  0  0  0  0  0
  1  4  1  0  0  0  0
  2  4  1  0  0  0  0
  2  3  1  0  0  0  0
  5  4  1  0  0  0  0
  6  5  1  0  0  0  0
M  END
