1
 OpenBabel05122313063D

 16 16  0  0  0  0  0  0  0  0999 V2000
    1.5354   -0.7561   -0.4934 O   0  5  0  0  0  0  0  0  0  0  0  0
    3.2110    0.7536   -0.3047 O   0  0  0  0  0  0  0  0  0  0  0  0
    2.0289   -3.2623   -0.6048 O   0  0  0  0  0  0  0  0  0  0  0  0
    1.5278   -2.3910   -0.5892 H   0  0  0  0  0  0  0  0  0  0  0  0
    7.4488   -2.0732   -0.3336 O   0  0  0  0  0  0  0  0  0  0  0  0
    7.5884   -1.1101   -0.2799 H   0  0  0  0  0  0  0  0  0  0  0  0
    2.8017   -0.4323   -0.4130 C   0  0  0  0  0  0  0  0  0  0  0  0
    3.7640   -1.5615   -0.4463 C   0  0  0  0  0  0  0  0  0  0  0  0
    3.3238   -2.9162   -0.5356 C   0  0  0  0  0  0  0  0  0  0  0  0
    4.3020   -3.9400   -0.5515 C   0  0  0  0  0  0  0  0  0  0  0  0
    3.9548   -4.9811   -0.6207 H   0  0  0  0  0  0  0  0  0  0  0  0
    5.6606   -3.6402   -0.4840 C   0  0  0  0  0  0  0  0  0  0  0  0
    6.4162   -4.4397   -0.4978 H   0  0  0  0  0  0  0  0  0  0  0  0
    6.0999   -2.2978   -0.3969 C   0  0  0  0  0  0  0  0  0  0  0  0
    5.1483   -1.2760   -0.3792 C   0  0  0  0  0  0  0  0  0  0  0  0
    5.4400   -0.2157   -0.3099 H   0  0  0  0  0  0  0  0  0  0  0  0
  1  7  1  0  0  0  0
  3  4  1  0  0  0  0
  3  9  1  0  0  0  0
  5  6  1  0  0  0  0
  7  2  2  0  0  0  0
  8  7  1  0  0  0  0
  8 15  1  0  0  0  0
  9  8  2  0  0  0  0
 10  9  1  0  0  0  0
 10 12  2  0  0  0  0
 11 10  1  0  0  0  0
 12 14  1  0  0  0  0
 13 12  1  0  0  0  0
 14 15  2  0  0  0  0
 14  5  1  0  0  0  0
 15 16  1  0  0  0  0
M  CHG  1   1  -1
M  END
