4
 OpenBabel05122313063D

 10  9  0  0  0  0  0  0  0  0999 V2000
   -3.8652    3.9398    0.2526 F   0  0  0  0  0  0  0  0  0  0  0  0
   -1.9442    3.2611   -0.5195 F   0  0  0  0  0  0  0  0  0  0  0  0
   -2.5668    2.6939    1.4944 F   0  0  0  0  0  0  0  0  0  0  0  0
   -1.7263    0.4138   -0.6922 O   0  5  0  0  0  0  0  0  0  0  0  0
   -3.4052   -0.5947    0.4828 O   0  0  0  0  0  0  0  0  0  0  0  0
   -2.8994    0.3609   -0.1357 C   0  0  0  0  0  0  0  0  0  0  0  0
   -3.7030    1.6522   -0.3140 C   0  0  0  0  0  0  0  0  0  0  0  0
   -3.9018    1.8238   -1.3904 H   0  0  0  0  0  0  0  0  0  0  0  0
   -4.6656    1.5420    0.2165 H   0  0  0  0  0  0  0  0  0  0  0  0
   -3.0030    2.8891    0.2247 C   0  0  0  0  0  0  0  0  0  0  0  0
  2 10  1  0  0  0  0
  4  6  1  0  0  0  0
  6  5  2  0  0  0  0
  7  6  1  0  0  0  0
  7  9  1  0  0  0  0
  7 10  1  0  0  0  0
  8  7  1  0  0  0  0
 10  1  1  0  0  0  0
 10  3  1  0  0  0  0
M  CHG  1   4  -1
M  END
