1
 OpenBabel05122313063D

 20 20  0  0  0  0  0  0  0  0999 V2000
    0.2118   -0.1188   -0.7181 O   0  5  0  0  0  0  0  0  0  0  0  0
    1.1436    2.3189   -0.3015 O   0  0  0  0  0  0  0  0  0  0  0  0
    1.6726   -2.3267   -0.3297 O   0  0  0  0  0  0  0  0  0  0  0  0
    1.4956    0.0109   -0.3640 C   0  0  0  0  0  0  0  0  0  0  0  0
    2.3128   -1.1362   -0.1821 C   0  0  0  0  0  0  0  0  0  0  0  0
    3.6761   -0.9773    0.1378 C   0  0  0  0  0  0  0  0  0  0  0  0
    4.2025    0.3135    0.2979 C   0  0  0  0  0  0  0  0  0  0  0  0
    3.4027    1.4579    0.1560 C   0  0  0  0  0  0  0  0  0  0  0  0
    2.0398    1.3092   -0.1649 C   0  0  0  0  0  0  0  0  0  0  0  0
    1.5948    3.6530   -0.1743 C   0  0  0  0  0  0  0  0  0  0  0  0
    2.4381   -3.5136   -0.2360 C   0  0  0  0  0  0  0  0  0  0  0  0
    4.3250   -1.8526    0.2684 H   0  0  0  0  0  0  0  0  0  0  0  0
    5.2681    0.4309    0.5449 H   0  0  0  0  0  0  0  0  0  0  0  0
    3.8383    2.4554    0.2978 H   0  0  0  0  0  0  0  0  0  0  0  0
    2.0067    3.8577    0.8398 H   0  0  0  0  0  0  0  0  0  0  0  0
    0.7083    4.2917   -0.3427 H   0  0  0  0  0  0  0  0  0  0  0  0
    2.3718    3.8994   -0.9318 H   0  0  0  0  0  0  0  0  0  0  0  0
    3.2441   -3.5453   -1.0024 H   0  0  0  0  0  0  0  0  0  0  0  0
    1.7373   -4.3498   -0.4146 H   0  0  0  0  0  0  0  0  0  0  0  0
    2.8980   -3.6334    0.7709 H   0  0  0  0  0  0  0  0  0  0  0  0
  1  4  1  0  0  0  0
  2 10  1  0  0  0  0
  2  9  1  0  0  0  0
  3 11  1  0  0  0  0
  3  5  1  0  0  0  0
  4  5  2  0  0  0  0
  4  9  1  0  0  0  0
  5  6  1  0  0  0  0
  6 12  1  0  0  0  0
  6  7  2  0  0  0  0
  7 13  1  0  0  0  0
  8 14  1  0  0  0  0
  8  7  1  0  0  0  0
  9  8  2  0  0  0  0
 10 15  1  0  0  0  0
 11 20  1  0  0  0  0
 16 10  1  0  0  0  0
 17 10  1  0  0  0  0
 18 11  1  0  0  0  0
 19 11  1  0  0  0  0
M  CHG  1   1  -1
M  END
