2
 OpenBabel05122313063D

 34 36  0  0  0  0  0  0  0  0999 V2000
    1.0187   -0.0083   -0.1484 P   0  0  0  0  0  0  0  0  0  0  0  0
   -0.9978    1.6229   -1.3645 O   0  5  0  0  0  0  0  0  0  0  0  0
    1.3417    1.1031   -1.5450 C   0  0  0  0  0  0  0  0  0  0  0  0
    0.1702    1.8223   -1.9410 C   0  0  0  0  0  0  0  0  0  0  0  0
    0.3210    2.8008   -2.9659 C   0  0  0  0  0  0  0  0  0  0  0  0
    1.5671    3.0239   -3.5541 C   0  0  0  0  0  0  0  0  0  0  0  0
    2.7108    2.2959   -3.1603 C   0  0  0  0  0  0  0  0  0  0  0  0
    2.5907    1.3377   -2.1473 C   0  0  0  0  0  0  0  0  0  0  0  0
    2.0367   -1.5274   -0.2760 C   0  0  0  0  0  0  0  0  0  0  0  0
    3.4305   -1.4767   -0.0508 C   0  0  0  0  0  0  0  0  0  0  0  0
    4.2033   -2.6418   -0.1603 C   0  0  0  0  0  0  0  0  0  0  0  0
    3.5925   -3.8638   -0.4865 C   0  0  0  0  0  0  0  0  0  0  0  0
    2.2075   -3.9165   -0.7086 C   0  0  0  0  0  0  0  0  0  0  0  0
    1.4275   -2.7545   -0.6064 C   0  0  0  0  0  0  0  0  0  0  0  0
    1.7160    0.8598    1.3212 C   0  0  0  0  0  0  0  0  0  0  0  0
    1.6808    2.2702    1.3464 C   0  0  0  0  0  0  0  0  0  0  0  0
    2.0944    2.9676    2.4903 C   0  0  0  0  0  0  0  0  0  0  0  0
    2.5432    2.2678    3.6227 C   0  0  0  0  0  0  0  0  0  0  0  0
    2.5861    0.8643    3.6022 C   0  0  0  0  0  0  0  0  0  0  0  0
    2.1758    0.1619    2.4583 C   0  0  0  0  0  0  0  0  0  0  0  0
   -0.5720    3.3584   -3.2839 H   0  0  0  0  0  0  0  0  0  0  0  0
    1.6533    3.7783   -4.3523 H   0  0  0  0  0  0  0  0  0  0  0  0
    3.6805    2.4712   -3.6482 H   0  0  0  0  0  0  0  0  0  0  0  0
    3.4694    0.7547   -1.8300 H   0  0  0  0  0  0  0  0  0  0  0  0
    3.9116   -0.5262    0.2256 H   0  0  0  0  0  0  0  0  0  0  0  0
    5.2892   -2.5944    0.0131 H   0  0  0  0  0  0  0  0  0  0  0  0
    4.2005   -4.7777   -0.5692 H   0  0  0  0  0  0  0  0  0  0  0  0
    1.7266   -4.8710   -0.9716 H   0  0  0  0  0  0  0  0  0  0  0  0
    0.3486   -2.7732   -0.8247 H   0  0  0  0  0  0  0  0  0  0  0  0
    1.3311    2.8172    0.4573 H   0  0  0  0  0  0  0  0  0  0  0  0
    2.0681    4.0679    2.4960 H   0  0  0  0  0  0  0  0  0  0  0  0
    2.8682    2.8170    4.5194 H   0  0  0  0  0  0  0  0  0  0  0  0
    2.9488    0.3099    4.4814 H   0  0  0  0  0  0  0  0  0  0  0  0
    2.2273   -0.9370    2.4435 H   0  0  0  0  0  0  0  0  0  0  0  0
  1 15  1  0  0  0  0
  3  1  1  0  0  0  0
  4  3  1  0  0  0  0
  4  2  1  0  0  0  0
  5  4  2  0  0  0  0
  6  7  2  0  0  0  0
  6  5  1  0  0  0  0
  7  8  1  0  0  0  0
  8 24  1  0  0  0  0
  8  3  2  0  0  0  0
  9  1  1  0  0  0  0
  9 10  1  0  0  0  0
 10 25  1  0  0  0  0
 11 10  2  0  0  0  0
 11 26  1  0  0  0  0
 12 11  1  0  0  0  0
 13 14  1  0  0  0  0
 13 12  2  0  0  0  0
 14  9  2  0  0  0  0
 15 16  2  0  0  0  0
 15 20  1  0  0  0  0
 16 17  1  0  0  0  0
 17 31  1  0  0  0  0
 17 18  2  0  0  0  0
 18 32  1  0  0  0  0
 19 18  1  0  0  0  0
 19 33  1  0  0  0  0
 20 19  2  0  0  0  0
 21  5  1  0  0  0  0
 22  6  1  0  0  0  0
 23  7  1  0  0  0  0
 27 12  1  0  0  0  0
 28 13  1  0  0  0  0
 29 14  1  0  0  0  0
 30 16  1  0  0  0  0
 34 20  1  0  0  0  0
M  CHG  1   2  -1
M  END
