1
 OpenBabel05122313063D

 13 13  0  0  0  0  0  0  0  0999 V2000
    0.7855    1.2652   -1.6610 O   0  0  0  0  0  1  0  0  0  0  0  0
   -0.5358    1.2156   -1.6588 N   0  0  0  0  0  2  0  0  0  0  0  0
   -1.1336    2.1717   -0.7815 C   0  0  0  0  0  0  0  0  0  0  0  0
   -2.5430    2.1657   -0.7135 C   0  0  0  0  0  0  0  0  0  0  0  0
   -3.0992    1.4431   -1.3281 H   0  0  0  0  0  0  0  0  0  0  0  0
   -0.3826    3.0953   -0.0154 C   0  0  0  0  0  0  0  0  0  0  0  0
    0.7127    3.0824   -0.1101 H   0  0  0  0  0  0  0  0  0  0  0  0
   -3.1981    3.0652    0.1367 C   0  0  0  0  0  0  0  0  0  0  0  0
   -4.2965    3.0505    0.1992 H   0  0  0  0  0  0  0  0  0  0  0  0
   -1.0499    3.9893    0.8259 C   0  0  0  0  0  0  0  0  0  0  0  0
   -0.4731    4.7107    1.4252 H   0  0  0  0  0  0  0  0  0  0  0  0
   -2.4570    3.9745    0.9096 C   0  0  0  0  0  0  0  0  0  0  0  0
   -2.9747    4.6813    1.5758 H   0  0  0  0  0  0  0  0  0  0  0  0
  1  2  1  0  0  0  0
  2  3  1  0  0  0  0
  3  4  2  0  0  0  0
  3  6  1  0  0  0  0
  4  8  1  0  0  0  0
  5  4  1  0  0  0  0
  6 10  2  0  0  0  0
  7  6  1  0  0  0  0
  8  9  1  0  0  0  0
  8 12  2  0  0  0  0
 10 12  1  0  0  0  0
 10 11  1  0  0  0  0
 12 13  1  0  0  0  0
M  END
