1
 OpenBabel05122313063D

 19 19  0  0  0  0  0  0  0  0999 V2000
    0.8404    0.7666   -1.9633 O   0  0  0  0  0  1  0  0  0  0  0  0
   -0.4767    0.6798   -1.8937 N   0  0  0  0  0  2  0  0  0  0  0  0
   -0.9175    3.6222    0.4159 C   0  0  0  0  0  0  0  0  0  0  0  0
   -1.0591    1.7071   -1.0840 C   0  0  0  0  0  0  0  0  0  0  0  0
   -2.4660    1.7053   -0.9836 C   0  0  0  0  0  0  0  0  0  0  0  0
   -3.0323    0.9394   -1.5341 H   0  0  0  0  0  0  0  0  0  0  0  0
   -3.1150    2.6610   -0.1858 C   0  0  0  0  0  0  0  0  0  0  0  0
   -0.2869    2.6695   -0.3995 C   0  0  0  0  0  0  0  0  0  0  0  0
    0.8062    2.6443   -0.5219 H   0  0  0  0  0  0  0  0  0  0  0  0
   -4.6183    2.6919   -0.0690 C   0  0  0  0  0  0  0  0  0  0  0  0
   -5.0286    3.6548   -0.4392 H   0  0  0  0  0  0  0  0  0  0  0  0
   -4.9412    2.5901    0.9880 H   0  0  0  0  0  0  0  0  0  0  0  0
   -5.0854    1.8716   -0.6449 H   0  0  0  0  0  0  0  0  0  0  0  0
   -0.1006    4.6545    1.1537 C   0  0  0  0  0  0  0  0  0  0  0  0
    0.8078    4.2026    1.6008 H   0  0  0  0  0  0  0  0  0  0  0  0
   -0.6823    5.1384    1.9623 H   0  0  0  0  0  0  0  0  0  0  0  0
    0.2443    5.4550    0.4651 H   0  0  0  0  0  0  0  0  0  0  0  0
   -2.3257    3.6003    0.5126 C   0  0  0  0  0  0  0  0  0  0  0  0
   -2.8262    4.3468    1.1517 H   0  0  0  0  0  0  0  0  0  0  0  0
  1  2  1  0  0  0  0
  2  4  1  0  0  0  0
  3 18  1  0  0  0  0
  3 14  1  0  0  0  0
  4  5  2  0  0  0  0
  4  8  1  0  0  0  0
  5  7  1  0  0  0  0
  6  5  1  0  0  0  0
  7 10  1  0  0  0  0
  7 18  2  0  0  0  0
  8  3  2  0  0  0  0
  9  8  1  0  0  0  0
 10 12  1  0  0  0  0
 11 10  1  0  0  0  0
 13 10  1  0  0  0  0
 14 15  1  0  0  0  0
 14 16  1  0  0  0  0
 17 14  1  0  0  0  0
 18 19  1  0  0  0  0
M  END
