6
 OpenBabel05122313063D

 40 42  0  0  1  0  0  0  0  0999 V2000
   -1.2870   -0.0223   -0.0352 P   0  0  0  0  0  0  0  0  0  0  0  0
    4.3884   -0.3511   -0.9558 F   0  0  0  0  0  0  0  0  0  0  0  0
    2.5283   -1.8864   -0.7238 O   0  0  0  0  0  0  0  0  0  0  0  0
    3.8022   -1.1915   -0.0288 B   0  0  0  0  0  0  0  0  0  0  0  0
    3.2874   -0.5009    1.0797 F   0  0  0  0  0  0  0  0  0  0  0  0
    1.4900    0.0626   -1.0381 O   0  0  0  0  0  1  0  0  0  0  0  0
    4.5910   -2.2548    0.3340 F   0  0  0  0  0  0  0  0  0  0  0  0
   -1.0522   -0.6526    1.6744 C   0  0  0  0  0  0  0  0  0  0  0  0
    0.2490   -0.5561    2.2124 C   0  0  0  0  0  0  0  0  0  0  0  0
    1.0619   -0.0714    1.6490 H   0  0  0  0  0  0  0  0  0  0  0  0
    0.5322   -1.1344    3.4588 C   0  0  0  0  0  0  0  0  0  0  0  0
    1.5584   -1.0759    3.8510 H   0  0  0  0  0  0  0  0  0  0  0  0
   -0.4784   -1.7888    4.1790 C   0  0  0  0  0  0  0  0  0  0  0  0
   -0.2555   -2.2369    5.1593 H   0  0  0  0  0  0  0  0  0  0  0  0
   -1.7737   -1.8877    3.6418 C   0  0  0  0  0  0  0  0  0  0  0  0
   -2.5641   -2.4129    4.1995 H   0  0  0  0  0  0  0  0  0  0  0  0
   -2.0613   -1.3338    2.3862 C   0  0  0  0  0  0  0  0  0  0  0  0
   -3.0696   -1.4400    1.9578 H   0  0  0  0  0  0  0  0  0  0  0  0
   -3.0253    0.5055   -0.2248 C   0  0  0  0  0  0  0  0  0  0  0  0
   -3.6128    0.5249   -1.5090 C   0  0  0  0  0  0  0  0  0  0  0  0
   -3.0640    0.1166   -2.3715 H   0  0  0  0  0  0  0  0  0  0  0  0
   -4.8915    1.0687   -1.6925 C   0  0  0  0  0  0  0  0  0  0  0  0
   -5.3423    1.0717   -2.6964 H   0  0  0  0  0  0  0  0  0  0  0  0
   -5.5916    1.6132   -0.6032 C   0  0  0  0  0  0  0  0  0  0  0  0
   -6.5948    2.0408   -0.7499 H   0  0  0  0  0  0  0  0  0  0  0  0
   -5.0031    1.6177    0.6707 C   0  0  0  0  0  0  0  0  0  0  0  0
   -5.5415    2.0519    1.5267 H   0  0  0  0  0  0  0  0  0  0  0  0
   -3.7253    1.0707    0.8619 C   0  0  0  0  0  0  0  0  0  0  0  0
   -3.2687    1.0860    1.8627 H   0  0  0  0  0  0  0  0  0  0  0  0
   -1.0680   -1.5697   -1.0164 C   0  0  0  0  0  0  0  0  0  0  0  0
    0.2500   -2.0053   -1.3234 C   0  0  0  0  0  0  0  0  0  0  0  0
    0.4339   -3.2661   -1.9264 C   0  0  0  0  0  0  0  0  0  0  0  0
    1.4624   -3.5993   -2.1250 H   0  0  0  0  0  0  0  0  0  0  0  0
   -0.6625   -4.0696   -2.2614 C   0  0  0  0  0  0  0  0  0  0  0  0
   -0.4999   -5.0425   -2.7489 H   0  0  0  0  0  0  0  0  0  0  0  0
   -1.9629   -3.6388   -1.9577 C   0  0  0  0  0  0  0  0  0  0  0  0
   -2.8297   -4.2722   -2.1999 H   0  0  0  0  0  0  0  0  0  0  0  0
   -2.1604   -2.4045   -1.3220 C   0  0  0  0  0  0  0  0  0  0  0  0
   -3.1791   -2.0905   -1.0505 H   0  0  0  0  0  0  0  0  0  0  0  0
    1.4849   -1.2019   -1.0068 C   0  0  1  0  0  3  0  0  0  0  0  0
  1  8  1  0  0  0  0
  2  4  1  0  0  0  0
  3  4  1  0  0  0  0
  4  7  1  0  0  0  0
  4  5  1  0  0  0  0
  8  9  2  0  0  0  0
  8 17  1  0  0  0  0
  9 11  1  0  0  0  0
 10  9  1  0  0  0  0
 11 12  1  0  0  0  0
 11 13  2  0  0  0  0
 13 14  1  0  0  0  0
 15 13  1  0  0  0  0
 15 16  1  0  0  0  0
 17 15  2  0  0  0  0
 18 17  1  0  0  0  0
 19  1  1  0  0  0  0
 19 28  1  0  0  0  0
 20 19  2  0  0  0  0
 21 20  1  0  0  0  0
 22 20  1  0  0  0  0
 22 24  2  0  0  0  0
 23 22  1  0  0  0  0
 24 26  1  0  0  0  0
 25 24  1  0  0  0  0
 26 28  2  0  0  0  0
 26 27  1  0  0  0  0
 28 29  1  0  0  0  0
 30  1  1  0  0  0  0
 31 30  2  0  0  0  0
 31 40  1  0  0  0  0
 32 31  1  0  0  0  0
 33 32  1  0  0  0  0
 34 36  1  0  0  0  0
 34 32  2  0  0  0  0
 35 34  1  0  0  0  0
 36 38  2  0  0  0  0
 37 36  1  0  0  0  0
 38 39  1  0  0  0  0
 38 30  1  0  0  0  0
 40  6  1  6  0  0  0
 40  3  1  0  0  0  0
M  END
