3
 OpenBabel05122313063D

 21 22  0  0  0  0  0  0  0  0999 V2000
   -2.5317    1.7237    1.7971 O   0  5  0  0  0  0  0  0  0  0  0  0
   -2.6298    0.9918    0.7481 C   0  0  0  0  0  0  0  0  0  0  0  0
   -1.7045    0.9058   -0.1425 O   0  0  0  0  0  0  0  0  0  0  0  0
   -3.8707    0.2070    0.5459 C   0  0  0  0  0  0  0  0  0  0  0  0
   -3.9978   -0.6139   -0.5769 C   0  0  0  0  0  0  0  0  0  0  0  0
   -3.1575   -0.6548   -1.2855 H   0  0  0  0  0  0  0  0  0  0  0  0
   -5.1626   -1.3805   -0.8155 C   0  0  0  0  0  0  0  0  0  0  0  0
   -5.2996   -2.2233   -1.9601 C   0  0  0  0  0  0  0  0  0  0  0  0
   -6.4541   -2.9601   -2.1645 C   0  0  0  0  0  0  0  0  0  0  0  0
   -7.5221   -2.8812   -1.2249 C   0  0  0  0  0  0  0  0  0  0  0  0
   -7.4226   -2.0743   -0.1029 C   0  0  0  0  0  0  0  0  0  0  0  0
   -8.2513   -2.0183    0.6196 H   0  0  0  0  0  0  0  0  0  0  0  0
   -6.2465   -1.2997    0.1414 C   0  0  0  0  0  0  0  0  0  0  0  0
   -6.1107   -0.4660    1.2787 C   0  0  0  0  0  0  0  0  0  0  0  0
   -4.9537    0.2845    1.5037 C   0  0  0  0  0  0  0  0  0  0  0  0
   -4.8731    1.0567    2.5963 O   0  0  0  0  0  0  0  0  0  0  0  0
   -3.9695    1.4919    2.5516 H   0  0  0  0  0  0  0  0  0  0  0  0
   -6.9249   -0.3952    2.0146 H   0  0  0  0  0  0  0  0  0  0  0  0
   -8.4365   -3.4702   -1.3948 H   0  0  0  0  0  0  0  0  0  0  0  0
   -6.5511   -3.6071   -3.0490 H   0  0  0  0  0  0  0  0  0  0  0  0
   -4.4659   -2.2754   -2.6780 H   0  0  0  0  0  0  0  0  0  0  0  0
  2  1  1  0  0  0  0
  3  2  2  0  0  0  0
  4  2  1  0  0  0  0
  4 15  1  0  0  0  0
  5  4  2  0  0  0  0
  6  5  1  0  0  0  0
  7  5  1  0  0  0  0
  7 13  1  0  0  0  0
  8  7  2  0  0  0  0
  9  8  1  0  0  0  0
  9 10  2  0  0  0  0
 10 11  1  0  0  0  0
 11 13  2  0  0  0  0
 11 12  1  0  0  0  0
 13 14  1  0  0  0  0
 14 15  2  0  0  0  0
 14 18  1  0  0  0  0
 15 16  1  0  0  0  0
 17 16  1  0  0  0  0
 19 10  1  0  0  0  0
 20  9  1  0  0  0  0
 21  8  1  0  0  0  0
M  CHG  1   1  -1
M  END
