1
 OpenBabel05122313063D

  7  6  0  0  0  0  0  0  0  0999 V2000
    0.6083   -0.2190    2.1600 O   0  0  0  0  0  1  0  0  0  0  0  0
    0.2423    1.1402    4.1015 C   0  0  0  0  0  0  0  0  0  0  0  0
   -0.6611    0.9869    4.7296 H   0  0  0  0  0  0  0  0  0  0  0  0
    0.4447    2.2313    4.0932 H   0  0  0  0  0  0  0  0  0  0  0  0
    1.1031    0.5986    4.5346 H   0  0  0  0  0  0  0  0  0  0  0  0
   -0.0272    0.7106    2.7063 C   0  0  0  0  0  3  0  0  0  0  0  0
   -0.8904    1.1756    2.1842 H   0  0  0  0  0  0  0  0  0  0  0  0
  1  6  1  0  0  0  0
  2  5  1  0  0  0  0
  2  3  1  0  0  0  0
  4  2  1  0  0  0  0
  6  2  1  0  0  0  0
  7  6  1  0  0  0  0
M  END
