2
 OpenBabel05122313063D

 49 52  0  0  0  0  0  0  0  0999 V2000
    2.4549   -0.2461   -0.0892 P   0  0  0  0  0  4  0  0  0  0  0  0
   -0.5513   -0.2379   -0.3308 O   0  5  0  0  0  0  0  0  0  0  0  0
    1.3674   -1.5745   -0.4488 C   0  0  0  0  0  0  0  0  0  0  0  0
    1.8394   -2.5381   -0.6783 H   0  0  0  0  0  0  0  0  0  0  0  0
   -0.0156   -1.4018   -0.5163 C   0  0  0  0  0  0  0  0  0  0  0  0
   -0.9117   -2.5474   -0.8404 C   0  0  0  0  0  0  0  0  0  0  0  0
   -0.6448   -3.8536   -0.3820 C   0  0  0  0  0  0  0  0  0  0  0  0
    0.2348   -4.0358    0.2530 H   0  0  0  0  0  0  0  0  0  0  0  0
   -1.5249   -4.9003   -0.6849 C   0  0  0  0  0  0  0  0  0  0  0  0
   -1.3230   -5.9124   -0.3025 H   0  0  0  0  0  0  0  0  0  0  0  0
   -2.6722   -4.6566   -1.4589 C   0  0  0  0  0  0  0  0  0  0  0  0
   -3.3636   -5.4804   -1.6930 H   0  0  0  0  0  0  0  0  0  0  0  0
   -2.9364   -3.3599   -1.9275 C   0  0  0  0  0  0  0  0  0  0  0  0
   -3.8303   -3.1628   -2.5385 H   0  0  0  0  0  0  0  0  0  0  0  0
   -2.0659   -2.3066   -1.6164 C   0  0  0  0  0  0  0  0  0  0  0  0
   -2.2631   -1.2897   -1.9980 H   0  0  0  0  0  0  0  0  0  0  0  0
    4.1041   -0.9924    0.1337 C   0  0  0  0  0  0  0  0  0  0  0  0
    4.7576   -0.9624    1.3799 C   0  0  0  0  0  0  0  0  0  0  0  0
    4.2864   -0.4553    2.2349 H   0  0  0  0  0  0  0  0  0  0  0  0
    6.0082   -1.5835    1.5245 C   0  0  0  0  0  0  0  0  0  0  0  0
    6.5177   -1.5600    2.4995 H   0  0  0  0  0  0  0  0  0  0  0  0
    6.6044   -2.2329    0.4329 C   0  0  0  0  0  0  0  0  0  0  0  0
    7.5849   -2.7185    0.5504 H   0  0  0  0  0  0  0  0  0  0  0  0
    5.9515   -2.2637   -0.8111 C   0  0  0  0  0  0  0  0  0  0  0  0
    6.4183   -2.7715   -1.6684 H   0  0  0  0  0  0  0  0  0  0  0  0
    4.7037   -1.6448   -0.9651 C   0  0  0  0  0  0  0  0  0  0  0  0
    4.1961   -1.6613   -1.9421 H   0  0  0  0  0  0  0  0  0  0  0  0
    2.6268    0.9979   -1.4179 C   0  0  0  0  0  0  0  0  0  0  0  0
    3.8809    1.5804   -1.7009 C   0  0  0  0  0  0  0  0  0  0  0  0
    4.7819    1.2525   -1.1605 H   0  0  0  0  0  0  0  0  0  0  0  0
    3.9780    2.5749   -2.6861 C   0  0  0  0  0  0  0  0  0  0  0  0
    4.9569    3.0256   -2.9097 H   0  0  0  0  0  0  0  0  0  0  0  0
    2.8324    2.9903   -3.3845 C   0  0  0  0  0  0  0  0  0  0  0  0
    2.9135    3.7721   -4.1551 H   0  0  0  0  0  0  0  0  0  0  0  0
    1.5866    2.4077   -3.1013 C   0  0  0  0  0  0  0  0  0  0  0  0
    0.6756    2.7233   -3.6322 H   0  0  0  0  0  0  0  0  0  0  0  0
    1.4765    1.4102   -2.1228 C   0  0  0  0  0  0  0  0  0  0  0  0
    0.4873    0.9754   -1.9103 H   0  0  0  0  0  0  0  0  0  0  0  0
    2.0444    0.6660    1.4318 C   0  0  0  0  0  0  0  0  0  0  0  0
    2.6764    1.9001    1.6985 C   0  0  0  0  0  0  0  0  0  0  0  0
    3.3770    2.3362    0.9701 H   0  0  0  0  0  0  0  0  0  0  0  0
    2.3947    2.5761    2.8927 C   0  0  0  0  0  0  0  0  0  0  0  0
    2.8889    3.5358    3.1061 H   0  0  0  0  0  0  0  0  0  0  0  0
    1.4634    2.0415    3.8017 C   0  0  0  0  0  0  0  0  0  0  0  0
    1.2281    2.5870    4.7283 H   0  0  0  0  0  0  0  0  0  0  0  0
    0.8195    0.8275    3.5197 C   0  0  0  0  0  0  0  0  0  0  0  0
    0.0555    0.4187    4.1974 H   0  0  0  0  0  0  0  0  0  0  0  0
    1.1189    0.1264    2.3420 C   0  0  0  0  0  0  0  0  0  0  0  0
    0.5894   -0.8128    2.1231 H   0  0  0  0  0  0  0  0  0  0  0  0
  1 17  1  0  0  0  0
  1 39  1  0  0  0  0
  3  1  1  0  0  0  0
  4  3  1  0  0  0  0
  5  3  2  0  0  0  0
  5  2  1  0  0  0  0
  6  5  1  0  0  0  0
  6  7  1  0  0  0  0
  7  8  1  0  0  0  0
  9  7  2  0  0  0  0
  9 10  1  0  0  0  0
 11  9  1  0  0  0  0
 12 11  1  0  0  0  0
 13 15  1  0  0  0  0
 13 11  2  0  0  0  0
 14 13  1  0  0  0  0
 15  6  2  0  0  0  0
 16 15  1  0  0  0  0
 17 18  1  0  0  0  0
 18 20  2  0  0  0  0
 18 19  1  0  0  0  0
 20 21  1  0  0  0  0
 22 23  1  0  0  0  0
 22 20  1  0  0  0  0
 24 22  2  0  0  0  0
 25 24  1  0  0  0  0
 26 24  1  0  0  0  0
 26 17  2  0  0  0  0
 27 26  1  0  0  0  0
 28  1  1  0  0  0  0
 29 28  1  0  0  0  0
 29 30  1  0  0  0  0
 31 29  2  0  0  0  0
 32 31  1  0  0  0  0
 33 35  2  0  0  0  0
 33 31  1  0  0  0  0
 34 33  1  0  0  0  0
 35 37  1  0  0  0  0
 36 35  1  0  0  0  0
 37 38  1  0  0  0  0
 37 28  2  0  0  0  0
 39 40  2  0  0  0  0
 39 48  1  0  0  0  0
 40 42  1  0  0  0  0
 41 40  1  0  0  0  0
 42 43  1  0  0  0  0
 42 44  2  0  0  0  0
 44 45  1  0  0  0  0
 46 44  1  0  0  0  0
 46 47  1  0  0  0  0
 48 46  2  0  0  0  0
 49 48  1  0  0  0  0
M  CHG  1   2  -1
M  END
