1
 OpenBabel05122313063D

 19 18  0  0  1  0  0  0  0  0999 V2000
    0.6456   -1.6008   -0.9587 O   0  0  0  0  0  1  0  0  0  0  0  0
    1.5292    0.5735    0.4201 N   0  0  0  0  0  0  0  0  0  0  0  0
    1.6401    1.5970    0.4218 H   0  0  0  0  0  0  0  0  0  0  0  0
    1.7129    0.2581    1.3855 H   0  0  0  0  0  0  0  0  0  0  0  0
    2.4865   -0.0875   -0.5186 C   0  0  2  0  0  0  0  0  0  0  0  0
    2.3080    0.3939   -1.5045 H   0  0  0  0  0  0  0  0  0  0  0  0
    2.0012   -1.5410   -0.6530 C   0  0  0  0  0  0  0  0  0  0  0  0
    2.6125   -2.0367   -1.4496 H   0  0  0  0  0  0  0  0  0  0  0  0
    2.2467   -2.0889    0.2997 H   0  0  0  0  0  0  0  0  0  0  0  0
    3.9742    0.1085   -0.1456 C   0  0  0  0  0  0  0  0  0  0  0  0
    4.5427   -0.4827   -0.8980 H   0  0  0  0  0  0  0  0  0  0  0  0
    4.3985    1.5763   -0.2920 C   0  0  0  0  0  0  0  0  0  0  0  0
    5.4849    1.7016   -0.1097 H   0  0  0  0  0  0  0  0  0  0  0  0
    3.8751    2.2263    0.4429 H   0  0  0  0  0  0  0  0  0  0  0  0
    4.1768    1.9670   -1.3059 H   0  0  0  0  0  0  0  0  0  0  0  0
    4.3379   -0.4320    1.2446 C   0  0  0  0  0  0  0  0  0  0  0  0
    4.0799   -1.5027    1.3601 H   0  0  0  0  0  0  0  0  0  0  0  0
    3.8196    0.1305    2.0518 H   0  0  0  0  0  0  0  0  0  0  0  0
    5.4248   -0.3240    1.4344 H   0  0  0  0  0  0  0  0  0  0  0  0
  1  7  1  0  0  0  0
  2  3  1  0  0  0  0
  2  4  1  0  0  0  0
  5  6  1  6  0  0  0
  5 10  1  0  0  0  0
  5  2  1  0  0  0  0
  7  5  1  0  0  0  0
  7  9  1  0  0  0  0
  8  7  1  0  0  0  0
 10 16  1  0  0  0  0
 11 10  1  0  0  0  0
 12 10  1  0  0  0  0
 12 13  1  0  0  0  0
 12 14  1  0  0  0  0
 15 12  1  0  0  0  0
 16 17  1  0  0  0  0
 16 19  1  0  0  0  0
 16 18  1  0  0  0  0
M  END
