2
 OpenBabel05122313063D

 27 29  0  0  0  0  0  0  0  0999 V2000
    1.4992    0.6595    1.3093 O   0  0  0  0  0  0  0  0  0  0  0  0
   -0.7408   -1.0301    1.1862 O   0  5  0  0  0  0  0  0  0  0  0  0
    1.9436   -3.3368    0.4513 O   0  0  0  0  0  0  0  0  0  0  0  0
    1.6356   -0.5595    1.0776 C   0  0  0  0  0  0  0  0  0  0  0  0
    3.0484   -2.5706    0.6244 C   0  0  0  0  0  0  0  0  0  0  0  0
    0.6845   -2.7972    0.5331 C   0  0  0  0  0  0  0  0  0  0  0  0
    0.4751   -1.4706    0.9352 C   0  0  0  0  0  0  0  0  0  0  0  0
   -0.3669   -3.7766    0.2312 C   0  0  0  0  0  0  0  0  0  0  0  0
    2.9520   -1.1906    0.9138 C   0  0  0  0  0  0  0  0  0  0  0  0
   -1.6046   -3.3660   -0.3238 C   0  0  0  0  0  0  0  0  0  0  0  0
   -1.7678   -2.3028   -0.5437 H   0  0  0  0  0  0  0  0  0  0  0  0
   -2.3546   -5.6860   -0.3967 C   0  0  0  0  0  0  0  0  0  0  0  0
   -3.1307   -6.4282   -0.6394 H   0  0  0  0  0  0  0  0  0  0  0  0
    4.1458   -0.4425    1.0465 C   0  0  0  0  0  0  0  0  0  0  0  0
    4.0386    0.6310    1.2613 H   0  0  0  0  0  0  0  0  0  0  0  0
   -0.1357   -5.1564    0.4437 C   0  0  0  0  0  0  0  0  0  0  0  0
    0.8302   -5.4810    0.8563 H   0  0  0  0  0  0  0  0  0  0  0  0
    5.4623   -2.4391    0.6129 C   0  0  0  0  0  0  0  0  0  0  0  0
    6.4434   -2.9234    0.4936 H   0  0  0  0  0  0  0  0  0  0  0  0
   -1.1246   -6.1004    0.1388 C   0  0  0  0  0  0  0  0  0  0  0  0
   -0.9324   -7.1693    0.3196 H   0  0  0  0  0  0  0  0  0  0  0  0
   -2.5804   -4.3191   -0.6343 C   0  0  0  0  0  0  0  0  0  0  0  0
   -3.5292   -3.9883   -1.0855 H   0  0  0  0  0  0  0  0  0  0  0  0
    4.3013   -3.2002    0.4761 C   0  0  0  0  0  0  0  0  0  0  0  0
    4.3313   -4.2747    0.2459 H   0  0  0  0  0  0  0  0  0  0  0  0
    5.3877   -1.0542    0.8974 C   0  0  0  0  0  0  0  0  0  0  0  0
    6.3120   -0.4655    0.9967 H   0  0  0  0  0  0  0  0  0  0  0  0
  3  6  1  0  0  0  0
  3  5  1  0  0  0  0
  4  1  2  0  0  0  0
  5  9  1  0  0  0  0
  6  7  2  0  0  0  0
  7  4  1  0  0  0  0
  7  2  1  0  0  0  0
  8 16  1  0  0  0  0
  8  6  1  0  0  0  0
  9 14  2  0  0  0  0
  9  4  1  0  0  0  0
 10  8  2  0  0  0  0
 11 10  1  0  0  0  0
 12 20  1  0  0  0  0
 13 12  1  0  0  0  0
 14 15  1  0  0  0  0
 16 17  1  0  0  0  0
 18 26  2  0  0  0  0
 19 18  1  0  0  0  0
 20 21  1  0  0  0  0
 20 16  2  0  0  0  0
 22 12  2  0  0  0  0
 22 10  1  0  0  0  0
 23 22  1  0  0  0  0
 24 18  1  0  0  0  0
 24  5  2  0  0  0  0
 25 24  1  0  0  0  0
 26 27  1  0  0  0  0
 26 14  1  0  0  0  0
M  CHG  1   2  -1
M  END
