1
 OpenBabel05122313063D

 25 25  0  0  0  0  0  0  0  0999 V2000
    1.7546    0.5773   -0.1394 O   0  5  0  0  0  0  0  0  0  0  0  0
    1.3387   -0.7868    1.7966 C   0  0  0  0  0  0  0  0  0  0  0  0
    2.0639   -0.4161    0.7000 C   0  0  0  0  0  0  0  0  0  0  0  0
    3.3292   -1.1379    0.3297 C   0  0  0  0  0  0  0  0  0  0  0  0
    3.2570   -2.3935   -0.3208 C   0  0  0  0  0  0  0  0  0  0  0  0
    4.4549   -3.0295   -0.7015 C   0  0  0  0  0  0  0  0  0  0  0  0
    4.3985   -4.0039   -1.2150 H   0  0  0  0  0  0  0  0  0  0  0  0
    5.7149   -2.4580   -0.4539 C   0  0  0  0  0  0  0  0  0  0  0  0
    5.7578   -1.2038    0.1842 C   0  0  0  0  0  0  0  0  0  0  0  0
    6.7347   -0.7308    0.3811 H   0  0  0  0  0  0  0  0  0  0  0  0
    4.5865   -0.5328    0.5742 C   0  0  0  0  0  0  0  0  0  0  0  0
    4.6576    0.8179    1.2427 C   0  0  0  0  0  0  0  0  0  0  0  0
    5.7042    1.1397    1.4065 H   0  0  0  0  0  0  0  0  0  0  0  0
    4.1359    0.8005    2.2223 H   0  0  0  0  0  0  0  0  0  0  0  0
    4.1418    1.5833    0.6273 H   0  0  0  0  0  0  0  0  0  0  0  0
    6.9865   -3.1743   -0.8377 C   0  0  0  0  0  0  0  0  0  0  0  0
    7.4243   -3.7103    0.0325 H   0  0  0  0  0  0  0  0  0  0  0  0
    7.7601   -2.4684   -1.2022 H   0  0  0  0  0  0  0  0  0  0  0  0
    6.8080   -3.9282   -1.6297 H   0  0  0  0  0  0  0  0  0  0  0  0
    1.9253   -3.0454   -0.6084 C   0  0  0  0  0  0  0  0  0  0  0  0
    2.0348   -3.8716   -1.3380 H   0  0  0  0  0  0  0  0  0  0  0  0
    1.1863   -2.3183   -1.0020 H   0  0  0  0  0  0  0  0  0  0  0  0
    1.4738   -3.4647    0.3147 H   0  0  0  0  0  0  0  0  0  0  0  0
    1.6572   -1.6279    2.4274 H   0  0  0  0  0  0  0  0  0  0  0  0
    0.3712   -0.3078    2.0324 H   0  0  0  0  0  0  0  0  0  0  0  0
  1  3  1  0  0  0  0
  2 25  1  0  0  0  0
  2 24  1  0  0  0  0
  3  2  2  0  0  0  0
  4 11  1  0  0  0  0
  4  3  1  0  0  0  0
  5  4  2  0  0  0  0
  6  8  2  0  0  0  0
  6  5  1  0  0  0  0
  7  6  1  0  0  0  0
  8  9  1  0  0  0  0
  9 10  1  0  0  0  0
  9 11  2  0  0  0  0
 11 12  1  0  0  0  0
 12 13  1  0  0  0  0
 12 14  1  0  0  0  0
 15 12  1  0  0  0  0
 16  8  1  0  0  0  0
 16 17  1  0  0  0  0
 18 16  1  0  0  0  0
 19 16  1  0  0  0  0
 20  5  1  0  0  0  0
 20 23  1  0  0  0  0
 21 20  1  0  0  0  0
 22 20  1  0  0  0  0
M  CHG  1   1  -1
M  END
