8
 OpenBabel05122313063D

 26 27  0  0  0  0  0  0  0  0999 V2000
   -3.7954    4.4252    1.9011 Cl  0  0  0  0  0  0  0  0  0  0  0  0
   -5.3266   -2.0912    1.1877 O   0  0  0  0  0  0  0  0  0  0  0  0
   -4.6669   -2.6542   -3.7794 C   0  0  0  0  0  0  0  0  0  0  0  0
   -4.6407   -2.9874   -4.8280 H   0  0  0  0  0  0  0  0  0  0  0  0
   -2.2602   -1.4763    0.2194 O   0  5  0  0  0  0  0  0  0  0  0  0
   -5.8953   -2.5238   -3.1101 C   0  0  0  0  0  0  0  0  0  0  0  0
   -6.8363   -2.7571   -3.6317 H   0  0  0  0  0  0  0  0  0  0  0  0
   -1.1201   -1.6587   -1.6910 O   0  0  0  0  0  0  0  0  0  0  0  0
   -4.1370    1.0524   -0.2763 C   0  0  0  0  0  0  0  0  0  0  0  0
   -3.9879    0.7469   -1.3224 H   0  0  0  0  0  0  0  0  0  0  0  0
   -4.5641    0.1084    0.6791 C   0  0  0  0  0  0  0  0  0  0  0  0
   -2.2231   -1.6828   -1.0245 C   0  0  0  0  0  0  0  0  0  0  0  0
   -4.7541    0.5219    2.0126 C   0  0  0  0  0  0  0  0  0  0  0  0
   -5.0953   -0.2319    2.7380 H   0  0  0  0  0  0  0  0  0  0  0  0
   -3.4750   -2.3664   -3.1033 C   0  0  0  0  0  0  0  0  0  0  0  0
   -2.4945   -2.4696   -3.5905 H   0  0  0  0  0  0  0  0  0  0  0  0
   -4.7372   -1.7862   -1.0919 C   0  0  0  0  0  0  0  0  0  0  0  0
   -3.8945    2.3820    0.0896 C   0  0  0  0  0  0  0  0  0  0  0  0
   -3.5551    3.1207   -0.6497 H   0  0  0  0  0  0  0  0  0  0  0  0
   -4.8568   -1.3275    0.3483 C   0  0  0  0  0  0  0  0  0  0  0  0
   -3.5003   -1.9416   -1.7615 C   0  0  0  0  0  0  0  0  0  0  0  0
   -4.0874    2.7668    1.4267 C   0  0  0  0  0  0  0  0  0  0  0  0
   -4.5161    1.8439    2.3965 C   0  0  0  0  0  0  0  0  0  0  0  0
   -4.6599    2.1728    3.4354 H   0  0  0  0  0  0  0  0  0  0  0  0
   -5.9283   -2.0972   -1.7745 C   0  0  0  0  0  0  0  0  0  0  0  0
   -6.8881   -1.9972   -1.2456 H   0  0  0  0  0  0  0  0  0  0  0  0
  3  6  2  0  0  0  0
  3 15  1  0  0  0  0
  4  3  1  0  0  0  0
  6 25  1  0  0  0  0
  7  6  1  0  0  0  0
  8 12  2  0  0  0  0
  9 18  2  0  0  0  0
  9 11  1  0  0  0  0
 10  9  1  0  0  0  0
 11 13  2  0  0  0  0
 12  5  1  0  0  0  0
 13 23  1  0  0  0  0
 13 14  1  0  0  0  0
 15 21  2  0  0  0  0
 16 15  1  0  0  0  0
 17 20  1  0  0  0  0
 18 22  1  0  0  0  0
 19 18  1  0  0  0  0
 20 11  1  0  0  0  0
 20  2  2  0  0  0  0
 21 17  1  0  0  0  0
 21 12  1  0  0  0  0
 22  1  1  0  0  0  0
 22 23  2  0  0  0  0
 23 24  1  0  0  0  0
 25 26  1  0  0  0  0
 25 17  2  0  0  0  0
M  CHG  1   5  -1
M  END
