1
 OpenBabel05122313063D

 30 31  0  0  0  0  0  0  0  0999 V2000
    1.0420    0.6727    0.3013 O   0  5  0  0  0  0  0  0  0  0  0  0
   -6.5900   -0.5201   -0.0237 O   0  0  0  0  0  0  0  0  0  0  0  0
    0.4858    2.9640    0.0200 C   0  0  0  0  0  0  0  0  0  0  0  0
    1.4651    1.8880    0.1295 C   0  0  0  0  0  0  0  0  0  0  0  0
    2.8459    2.2418    0.0453 C   0  0  0  0  0  0  0  0  0  0  0  0
    3.5935    1.4388    0.0933 H   0  0  0  0  0  0  0  0  0  0  0  0
    3.2290    3.5702   -0.0996 C   0  0  0  0  0  0  0  0  0  0  0  0
    4.3016    3.8137   -0.1573 H   0  0  0  0  0  0  0  0  0  0  0  0
    2.2754    4.6200   -0.1795 C   0  0  0  0  0  0  0  0  0  0  0  0
    2.6082    5.6614   -0.2926 H   0  0  0  0  0  0  0  0  0  0  0  0
    0.9247    4.3126   -0.1254 C   0  0  0  0  0  0  0  0  0  0  0  0
    0.1661    5.1085   -0.2019 H   0  0  0  0  0  0  0  0  0  0  0  0
   -2.6922    0.9649    0.0837 C   0  0  0  0  0  0  0  0  0  0  0  0
   -3.8142    1.8254    0.1036 C   0  0  0  0  0  0  0  0  0  0  0  0
   -3.6900    2.9164    0.1598 H   0  0  0  0  0  0  0  0  0  0  0  0
   -5.0998    1.2932    0.0660 C   0  0  0  0  0  0  0  0  0  0  0  0
   -5.9855    1.9440    0.0852 H   0  0  0  0  0  0  0  0  0  0  0  0
   -5.2995   -0.1073    0.0092 C   0  0  0  0  0  0  0  0  0  0  0  0
   -4.1792   -0.9657   -0.0057 C   0  0  0  0  0  0  0  0  0  0  0  0
   -4.2995   -2.0559   -0.0497 H   0  0  0  0  0  0  0  0  0  0  0  0
   -2.8870   -0.4306    0.0321 C   0  0  0  0  0  0  0  0  0  0  0  0
   -2.0063   -1.0939    0.0109 H   0  0  0  0  0  0  0  0  0  0  0  0
   -6.8548   -1.9123   -0.0775 C   0  0  0  0  0  0  0  0  0  0  0  0
   -6.4286   -2.3775   -0.9939 H   0  0  0  0  0  0  0  0  0  0  0  0
   -7.9547   -2.0194   -0.0965 H   0  0  0  0  0  0  0  0  0  0  0  0
   -6.4531   -2.4426    0.8142 H   0  0  0  0  0  0  0  0  0  0  0  0
   -1.3685    1.4295    0.1115 N   0  0  0  0  0  4  0  0  0  0  0  0
   -0.9057    2.6680    0.0123 C   0  0  0  0  0  0  0  0  0  0  0  0
   -1.6300    3.4923   -0.1045 H   0  0  0  0  0  0  0  0  0  0  0  0
   -0.5606    0.7373    0.2038 H   0  0  0  0  0  0  0  0  0  0  0  0
  2 18  1  0  0  0  0
  3  4  1  0  0  0  0
  4  1  1  0  0  0  0
  5  6  1  0  0  0  0
  5  4  2  0  0  0  0
  7  5  1  0  0  0  0
  8  7  1  0  0  0  0
  9 11  1  0  0  0  0
  9  7  2  0  0  0  0
 10  9  1  0  0  0  0
 11  3  2  0  0  0  0
 12 11  1  0  0  0  0
 13 14  1  0  0  0  0
 13 27  1  0  0  0  0
 14 15  1  0  0  0  0
 16 17  1  0  0  0  0
 16 14  2  0  0  0  0
 18 16  1  0  0  0  0
 19 18  2  0  0  0  0
 19 21  1  0  0  0  0
 20 19  1  0  0  0  0
 21 13  2  0  0  0  0
 22 21  1  0  0  0  0
 23  2  1  0  0  0  0
 23 26  1  0  0  0  0
 24 23  1  0  0  0  0
 25 23  1  0  0  0  0
 27 30  1  0  0  0  0
 28  3  1  0  0  0  0
 28 27  2  0  0  0  0
 29 28  1  0  0  0  0
M  CHG  1   1  -1
M  END
