1
 OpenBabel05122313063D

 28 30  0  0  1  0  0  0  0  0999 V2000
   -2.0063   -0.2569   -0.3901 O   0  5  0  0  0  0  0  0  0  0  0  0
   -2.7600    1.1069    1.2734 O   0  0  0  0  0  0  0  0  0  0  0  0
   -2.9320    0.2599    0.3731 C   0  0  0  0  0  0  0  0  0  0  0  0
   -4.3178   -0.3291    0.0998 C   0  0  2  0  0  0  0  0  0  0  0  0
   -4.4165   -1.6099    0.9820 C   0  0  0  0  0  0  0  0  0  0  0  0
   -5.7977   -2.2630    0.7920 C   0  0  1  0  0  0  0  0  0  0  0  0
   -6.8975   -1.2681    1.2103 C   0  0  0  0  0  0  0  0  0  0  0  0
   -6.8091   -0.0032    0.3339 C   0  0  2  0  0  0  0  0  0  0  0  0
   -6.9997   -0.3899   -1.1458 C   0  0  0  0  0  0  0  0  0  0  0  0
   -5.8982   -1.3829   -1.5641 C   0  0  1  0  0  0  0  0  0  0  0  0
   -4.5146   -0.7320   -1.3798 C   0  0  0  0  0  0  0  0  0  0  0  0
   -5.9860   -2.6481   -0.6880 C   0  0  0  0  0  0  0  0  0  0  0  0
   -5.4290    0.6556    0.5213 C   0  0  0  0  0  0  0  0  0  0  0  0
   -3.6002   -2.3085    0.7053 H   0  0  0  0  0  0  0  0  0  0  0  0
   -4.2591   -1.3328    2.0457 H   0  0  0  0  0  0  0  0  0  0  0  0
   -5.8534   -3.1734    1.4262 H   0  0  0  0  0  0  0  0  0  0  0  0
   -7.8989   -1.7376    1.1015 H   0  0  0  0  0  0  0  0  0  0  0  0
   -6.7804   -0.9983    2.2819 H   0  0  0  0  0  0  0  0  0  0  0  0
   -7.5989    0.7167    0.6377 H   0  0  0  0  0  0  0  0  0  0  0  0
   -8.0026   -0.8447   -1.2956 H   0  0  0  0  0  0  0  0  0  0  0  0
   -6.9583    0.5182   -1.7858 H   0  0  0  0  0  0  0  0  0  0  0  0
   -6.0291   -1.6599   -2.6319 H   0  0  0  0  0  0  0  0  0  0  0  0
   -4.4256    0.1694   -2.0247 H   0  0  0  0  0  0  0  0  0  0  0  0
   -3.7071   -1.4273   -1.6831 H   0  0  0  0  0  0  0  0  0  0  0  0
   -5.2062   -3.3778   -0.9938 H   0  0  0  0  0  0  0  0  0  0  0  0
   -6.9702   -3.1442   -0.8308 H   0  0  0  0  0  0  0  0  0  0  0  0
   -5.2705    0.9561    1.5765 H   0  0  0  0  0  0  0  0  0  0  0  0
   -5.3580    1.5815   -0.0898 H   0  0  0  0  0  0  0  0  0  0  0  0
  1  3  1  0  0  0  0
  3  2  2  0  0  0  0
  4  3  1  1  0  0  0
  4 13  1  0  0  0  0
  4  5  1  0  0  0  0
  5 15  1  0  0  0  0
  6  5  1  0  0  0  0
  6  7  1  0  0  0  0
  6 16  1  1  0  0  0
  7 18  1  0  0  0  0
  8 13  1  0  0  0  0
  8 19  1  1  0  0  0
  8  7  1  0  0  0  0
  9  8  1  0  0  0  0
 10 22  1  6  0  0  0
 10 11  1  0  0  0  0
 10  9  1  0  0  0  0
 10 12  1  0  0  0  0
 11  4  1  0  0  0  0
 12  6  1  0  0  0  0
 13 27  1  0  0  0  0
 14  5  1  0  0  0  0
 17  7  1  0  0  0  0
 20  9  1  0  0  0  0
 21  9  1  0  0  0  0
 23 11  1  0  0  0  0
 24 11  1  0  0  0  0
 25 12  1  0  0  0  0
 26 12  1  0  0  0  0
 28 13  1  0  0  0  0
M  CHG  1   1  -1
M  END
