1
 OpenBabel05122313063D

 55 56  0  0  0  0  0  0  0  0999 V2000
    1.5419    0.6418    0.3112 O   0  5  0  0  0  0  0  0  0  0  0  0
   -2.4454    1.5006   -0.1035 N   0  0  0  0  0  0  0  0  0  0  0  0
    1.2271    1.9191    0.0240 C   0  0  0  0  0  0  0  0  0  0  0  0
   -0.1511    2.2564   -0.1478 C   0  0  0  0  0  0  0  0  0  0  0  0
   -0.5121    3.5747   -0.4945 C   0  0  0  0  0  0  0  0  0  0  0  0
    0.4689    4.5488   -0.6485 C   0  0  0  0  0  0  0  0  0  0  0  0
    1.8176    4.2187   -0.4239 C   0  0  0  0  0  0  0  0  0  0  0  0
    2.2429    2.9238   -0.0738 C   0  0  0  0  0  0  0  0  0  0  0  0
   -1.1908    1.2472    0.0619 C   0  0  0  0  0  0  0  0  0  0  0  0
    3.7243    2.6333    0.2341 C   0  0  0  0  0  0  0  0  0  0  0  0
    4.5995    3.8923    0.0859 C   0  0  0  0  0  0  0  0  0  0  0  0
    3.8483    2.1470    1.6976 C   0  0  0  0  0  0  0  0  0  0  0  0
    4.2758    1.5707   -0.7396 C   0  0  0  0  0  0  0  0  0  0  0  0
   -3.4003    0.4996    0.1498 C   0  0  0  0  0  0  0  0  0  0  0  0
   -3.6018   -0.0230    1.4623 C   0  0  0  0  0  0  0  0  0  0  0  0
   -4.5952   -1.0064    1.6301 C   0  0  0  0  0  0  0  0  0  0  0  0
   -5.3611   -1.4685    0.5523 C   0  0  0  0  0  0  0  0  0  0  0  0
   -5.1619   -0.9302   -0.7262 C   0  0  0  0  0  0  0  0  0  0  0  0
   -4.1961    0.0646   -0.9489 C   0  0  0  0  0  0  0  0  0  0  0  0
   -2.8344    0.5452    2.6555 C   0  0  0  0  0  0  0  0  0  0  0  0
   -3.3237    1.9731    2.9627 C   0  0  0  0  0  0  0  0  0  0  0  0
   -2.8840   -0.3376    3.9063 C   0  0  0  0  0  0  0  0  0  0  0  0
   -3.9839    0.6979   -2.3202 C   0  0  0  0  0  0  0  0  0  0  0  0
   -4.6890    2.0664   -2.3831 C   0  0  0  0  0  0  0  0  0  0  0  0
   -4.4009   -0.1964   -3.4927 C   0  0  0  0  0  0  0  0  0  0  0  0
   -1.5828    3.7896   -0.6266 H   0  0  0  0  0  0  0  0  0  0  0  0
    0.1970    5.5784   -0.9247 H   0  0  0  0  0  0  0  0  0  0  0  0
    2.5683    5.0133   -0.5206 H   0  0  0  0  0  0  0  0  0  0  0  0
   -0.8475    0.2439    0.3863 H   0  0  0  0  0  0  0  0  0  0  0  0
    5.6494    3.6325    0.3274 H   0  0  0  0  0  0  0  0  0  0  0  0
    4.5865    4.2940   -0.9477 H   0  0  0  0  0  0  0  0  0  0  0  0
    4.2911    4.7005    0.7792 H   0  0  0  0  0  0  0  0  0  0  0  0
    3.2815    1.2164    1.8770 H   0  0  0  0  0  0  0  0  0  0  0  0
    4.9112    1.9416    1.9399 H   0  0  0  0  0  0  0  0  0  0  0  0
    3.4801    2.9253    2.3962 H   0  0  0  0  0  0  0  0  0  0  0  0
    3.7410    0.6129   -0.6414 H   0  0  0  0  0  0  0  0  0  0  0  0
    4.1940    1.9196   -1.7898 H   0  0  0  0  0  0  0  0  0  0  0  0
    5.3463    1.3736   -0.5261 H   0  0  0  0  0  0  0  0  0  0  0  0
   -4.7719   -1.4247    2.6309 H   0  0  0  0  0  0  0  0  0  0  0  0
   -6.1209   -2.2486    0.7110 H   0  0  0  0  0  0  0  0  0  0  0  0
   -5.7693   -1.2941   -1.5675 H   0  0  0  0  0  0  0  0  0  0  0  0
   -1.7642    0.6137    2.3726 H   0  0  0  0  0  0  0  0  0  0  0  0
   -4.3933    1.9630    3.2583 H   0  0  0  0  0  0  0  0  0  0  0  0
   -2.7399    2.4202    3.7935 H   0  0  0  0  0  0  0  0  0  0  0  0
   -3.2226    2.6309    2.0763 H   0  0  0  0  0  0  0  0  0  0  0  0
   -2.2243    0.0831    4.6912 H   0  0  0  0  0  0  0  0  0  0  0  0
   -3.9064   -0.3961    4.3345 H   0  0  0  0  0  0  0  0  0  0  0  0
   -2.5366   -1.3677    3.6913 H   0  0  0  0  0  0  0  0  0  0  0  0
   -2.8942    0.8946   -2.4218 H   0  0  0  0  0  0  0  0  0  0  0  0
   -5.7865    1.9425   -2.2761 H   0  0  0  0  0  0  0  0  0  0  0  0
   -4.3329    2.7254   -1.5678 H   0  0  0  0  0  0  0  0  0  0  0  0
   -4.4919    2.5711   -3.3518 H   0  0  0  0  0  0  0  0  0  0  0  0
   -5.4986   -0.3573   -3.5206 H   0  0  0  0  0  0  0  0  0  0  0  0
   -4.1199    0.2763   -4.4555 H   0  0  0  0  0  0  0  0  0  0  0  0
   -3.9148   -1.1922   -3.4439 H   0  0  0  0  0  0  0  0  0  0  0  0
  2  9  2  0  0  0  0
  2 14  1  0  0  0  0
  3  1  1  0  0  0  0
  4  3  2  0  0  0  0
  4  9  1  0  0  0  0
  5  4  1  0  0  0  0
  6  5  2  0  0  0  0
  6  7  1  0  0  0  0
  7  8  2  0  0  0  0
  8  3  1  0  0  0  0
  8 10  1  0  0  0  0
  9 29  1  0  0  0  0
 10 12  1  0  0  0  0
 11 10  1  0  0  0  0
 11 30  1  0  0  0  0
 11 32  1  0  0  0  0
 12 33  1  0  0  0  0
 12 34  1  0  0  0  0
 12 35  1  0  0  0  0
 13 36  1  0  0  0  0
 13 38  1  0  0  0  0
 13 10  1  0  0  0  0
 14 15  1  0  0  0  0
 15 16  2  0  0  0  0
 15 20  1  0  0  0  0
 16 39  1  0  0  0  0
 17 40  1  0  0  0  0
 17 16  1  0  0  0  0
 18 17  2  0  0  0  0
 19 18  1  0  0  0  0
 19 14  2  0  0  0  0
 20 21  1  0  0  0  0
 20 22  1  0  0  0  0
 21 43  1  0  0  0  0
 21 44  1  0  0  0  0
 22 47  1  0  0  0  0
 22 46  1  0  0  0  0
 23 19  1  0  0  0  0
 24 23  1  0  0  0  0
 24 50  1  0  0  0  0
 24 51  1  0  0  0  0
 25 55  1  0  0  0  0
 25 23  1  0  0  0  0
 26  5  1  0  0  0  0
 27  6  1  0  0  0  0
 28  7  1  0  0  0  0
 31 11  1  0  0  0  0
 37 13  1  0  0  0  0
 41 18  1  0  0  0  0
 42 20  1  0  0  0  0
 45 21  1  0  0  0  0
 48 22  1  0  0  0  0
 49 23  1  0  0  0  0
 52 24  1  0  0  0  0
 53 25  1  0  0  0  0
 54 25  1  0  0  0  0
M  CHG  1   1  -1
M  END
