3
 OpenBabel05122313063D

 27 28  0  0  0  0  0  0  0  0999 V2000
    2.3591   -5.5449   -0.3508 O   0  0  0  0  0  0  0  0  0  0  0  0
    2.9316   -4.6949   -0.3101 H   0  0  0  0  0  0  0  0  0  0  0  0
    1.6223   -1.4826   -0.0146 O   0  5  0  0  0  0  0  0  0  0  0  0
    3.1445   -3.1366   -0.1996 O   0  0  0  0  0  0  0  0  0  0  0  0
   -2.8544   -3.6349    0.0835 N   0  0  0  0  0  2  0  0  0  0  0  0
   -3.8227   -4.4554    0.0380 N   0  0  0  0  0  2  0  0  0  0  0  0
    1.9385   -2.7202   -0.1141 C   0  0  0  0  0  0  0  0  0  0  0  0
    0.8246   -3.7014   -0.1274 C   0  0  0  0  0  0  0  0  0  0  0  0
    1.1084   -5.0982   -0.2526 C   0  0  0  0  0  0  0  0  0  0  0  0
    0.0261   -6.0218   -0.2710 C   0  0  0  0  0  0  0  0  0  0  0  0
    0.2662   -7.0910   -0.3684 H   0  0  0  0  0  0  0  0  0  0  0  0
   -1.2848   -5.5773   -0.1667 C   0  0  0  0  0  0  0  0  0  0  0  0
   -2.1338   -6.2762   -0.1783 H   0  0  0  0  0  0  0  0  0  0  0  0
   -1.5721   -4.1878   -0.0370 C   0  0  0  0  0  0  0  0  0  0  0  0
   -0.5071   -3.2721   -0.0201 C   0  0  0  0  0  0  0  0  0  0  0  0
   -0.7247   -2.1995    0.0780 H   0  0  0  0  0  0  0  0  0  0  0  0
   -5.0979   -3.8602    0.1840 C   0  0  0  0  0  0  0  0  0  0  0  0
   -6.2063   -4.7254    0.0634 C   0  0  0  0  0  0  0  0  0  0  0  0
   -6.0071   -5.7886   -0.1379 H   0  0  0  0  0  0  0  0  0  0  0  0
   -7.5093   -4.2280    0.1976 C   0  0  0  0  0  0  0  0  0  0  0  0
   -8.3696   -4.9075    0.0996 H   0  0  0  0  0  0  0  0  0  0  0  0
   -7.7161   -2.8638    0.4608 C   0  0  0  0  0  0  0  0  0  0  0  0
   -8.7388   -2.4723    0.5725 H   0  0  0  0  0  0  0  0  0  0  0  0
   -6.6121   -1.9972    0.5877 C   0  0  0  0  0  0  0  0  0  0  0  0
   -6.7746   -0.9294    0.8041 H   0  0  0  0  0  0  0  0  0  0  0  0
   -5.3103   -2.4852    0.4480 C   0  0  0  0  0  0  0  0  0  0  0  0
   -4.4289   -1.8350    0.5405 H   0  0  0  0  0  0  0  0  0  0  0  0
  1  2  1  0  0  0  0
  1  9  1  0  0  0  0
  4  7  2  0  0  0  0
  6  5  1  0  0  0  0
  6 17  1  0  0  0  0
  7  3  1  0  0  0  0
  8  7  1  0  0  0  0
  8 15  1  0  0  0  0
  9  8  2  0  0  0  0
 10  9  1  0  0  0  0
 10 12  2  0  0  0  0
 11 10  1  0  0  0  0
 12 14  1  0  0  0  0
 13 12  1  0  0  0  0
 14 15  2  0  0  0  0
 14  5  1  0  0  0  0
 15 16  1  0  0  0  0
 17 26  1  0  0  0  0
 18 17  2  0  0  0  0
 18 20  1  0  0  0  0
 19 18  1  0  0  0  0
 20 22  2  0  0  0  0
 21 20  1  0  0  0  0
 22 23  1  0  0  0  0
 22 24  1  0  0  0  0
 24 25  1  0  0  0  0
 26 27  1  0  0  0  0
 26 24  2  0  0  0  0
M  CHG  1   3  -1
M  END
