1
 OpenBabel05122313063D

 19 18  0  0  0  0  0  0  0  0999 V2000
   -1.8495    0.8531   -1.1376 O   0  5  0  0  0  0  0  0  0  0  0  0
   -2.6950    1.0997   -0.1958 C   0  0  0  0  0  0  0  0  0  0  0  0
   -2.5046    1.6838    0.8849 O   0  0  0  0  0  0  0  0  0  0  0  0
   -4.0903    0.4946   -0.4417 C   0  0  0  0  0  0  0  0  0  0  0  0
   -4.1375   -0.9680   -0.0116 N   0  3  0  0  0  0  0  0  0  0  0  0
   -5.5635   -1.4281   -0.1140 C   0  0  0  0  0  0  0  0  0  0  0  0
   -6.1847   -0.8290    0.5754 H   0  0  0  0  0  0  0  0  0  0  0  0
   -5.9123   -1.2882   -1.1528 H   0  0  0  0  0  0  0  0  0  0  0  0
   -5.6173   -2.4967    0.1611 H   0  0  0  0  0  0  0  0  0  0  0  0
   -3.6614   -1.1184    1.4137 C   0  0  0  0  0  0  0  0  0  0  0  0
   -4.1866   -0.3818    2.0463 H   0  0  0  0  0  0  0  0  0  0  0  0
   -3.8873   -2.1490    1.7411 H   0  0  0  0  0  0  0  0  0  0  0  0
   -2.5692   -0.9433    1.4492 H   0  0  0  0  0  0  0  0  0  0  0  0
   -3.2717   -1.8222   -0.9032 C   0  0  0  0  0  0  0  0  0  0  0  0
   -3.5850   -1.6741   -1.9516 H   0  0  0  0  0  0  0  0  0  0  0  0
   -2.2154   -1.5274   -0.7673 H   0  0  0  0  0  0  0  0  0  0  0  0
   -3.4136   -2.8764   -0.6044 H   0  0  0  0  0  0  0  0  0  0  0  0
   -4.3609    0.5239   -1.5134 H   0  0  0  0  0  0  0  0  0  0  0  0
   -4.8432    1.0290    0.1651 H   0  0  0  0  0  0  0  0  0  0  0  0
  1  2  1  0  0  0  0
  2  3  2  0  0  0  0
  4  2  1  0  0  0  0
  4  5  1  0  0  0  0
  4 19  1  0  0  0  0
  5 10  1  0  0  0  0
  6  5  1  0  0  0  0
  6  9  1  0  0  0  0
  6  7  1  0  0  0  0
  8  6  1  0  0  0  0
 10 13  1  0  0  0  0
 10 12  1  0  0  0  0
 10 11  1  0  0  0  0
 14 16  1  0  0  0  0
 14 17  1  0  0  0  0
 14  5  1  0  0  0  0
 15 14  1  0  0  0  0
 18  4  1  0  0  0  0
M  CHG  2   1  -1   5   1
M  END
