1
 OpenBabel05122313063D

 13 12  0  0  0  0  0  0  0  0999 V2000
   -1.3586   -1.3714    0.3928 O   0  0  0  0  0  1  0  0  0  0  0  0
   -2.1323   -0.2005    0.4110 N   0  0  0  0  0  0  0  0  0  0  0  0
   -2.9829    0.0104   -0.7796 C   0  0  0  0  0  0  0  0  0  0  0  0
   -2.2747    0.0020   -1.6352 H   0  0  0  0  0  0  0  0  0  0  0  0
   -4.0032   -1.1159   -0.9314 C   0  0  0  0  0  0  0  0  0  0  0  0
   -3.4932   -2.0983   -0.9472 H   0  0  0  0  0  0  0  0  0  0  0  0
   -4.5689   -0.9995   -1.8768 H   0  0  0  0  0  0  0  0  0  0  0  0
   -4.7339   -1.1099   -0.0948 H   0  0  0  0  0  0  0  0  0  0  0  0
   -3.5999    1.4020   -0.6614 C   0  0  0  0  0  0  0  0  0  0  0  0
   -2.8097    2.1740   -0.5874 H   0  0  0  0  0  0  0  0  0  0  0  0
   -4.2589    1.4773    0.2297 H   0  0  0  0  0  0  0  0  0  0  0  0
   -4.2199    1.6184   -1.5527 H   0  0  0  0  0  0  0  0  0  0  0  0
   -2.6593   -0.1317    1.3000 H   0  0  0  0  0  0  0  0  0  0  0  0
  1  2  1  0  0  0  0
  2 13  1  0  0  0  0
  3  9  1  0  0  0  0
  3  2  1  0  0  0  0
  4  3  1  0  0  0  0
  5  3  1  0  0  0  0
  5  8  1  0  0  0  0
  6  5  1  0  0  0  0
  7  5  1  0  0  0  0
  9 10  1  0  0  0  0
  9 11  1  0  0  0  0
 12  9  1  0  0  0  0
M  END
