1
 OpenBabel05122313063D

 19 19  0  0  0  0  0  0  0  0999 V2000
    2.0360    0.6273   -0.5866 O   0  5  0  0  0  0  0  0  0  0  0  0
    2.2858   -1.5964   -0.1942 O   0  0  0  0  0  0  0  0  0  0  0  0
    7.2225   -2.6335   -1.3295 O   0  0  0  0  0  0  0  0  0  0  0  0
    8.0313   -3.1241   -1.5910 H   0  0  0  0  0  0  0  0  0  0  0  0
    8.8439   -1.2479   -0.5710 O   0  0  0  0  0  0  0  0  0  0  0  0
    3.3202    3.0216    0.8449 O   0  0  0  0  0  0  0  0  0  0  0  0
    2.7779    1.3355    2.1263 O   0  0  0  0  0  0  0  0  0  0  0  0
    3.4680    1.8715    1.2604 N   0  0  0  0  0  0  0  0  0  0  0  0
    2.7100   -0.4119   -0.2788 C   0  0  0  0  0  0  0  0  0  0  0  0
    4.1691   -0.1340    0.0101 C   0  0  0  0  0  0  0  0  0  0  0  0
    5.1897   -0.9844   -0.4340 C   0  0  0  0  0  0  0  0  0  0  0  0
    4.9175   -1.9188   -0.9436 H   0  0  0  0  0  0  0  0  0  0  0  0
    6.5416   -0.6344   -0.2469 C   0  0  0  0  0  0  0  0  0  0  0  0
    6.8801    0.5725    0.3968 C   0  0  0  0  0  0  0  0  0  0  0  0
    7.9445    0.8175    0.5236 H   0  0  0  0  0  0  0  0  0  0  0  0
    5.8761    1.4259    0.8683 C   0  0  0  0  0  0  0  0  0  0  0  0
    6.1156    2.3638    1.3888 H   0  0  0  0  0  0  0  0  0  0  0  0
    4.5436    1.0463    0.6812 C   0  0  0  0  0  0  0  0  0  0  0  0
    7.6620   -1.5073   -0.7167 C   0  0  0  0  0  0  0  0  0  0  0  0
  1  9  1  0  0  0  0
  3 19  1  0  0  0  0
  4  3  1  0  0  0  0
  6  8  2  0  0  0  0
  8  7  2  0  0  0  0
  9  2  2  0  0  0  0
  9 10  1  0  0  0  0
 10 18  1  0  0  0  0
 11 13  1  0  0  0  0
 11 10  2  0  0  0  0
 12 11  1  0  0  0  0
 13 14  2  0  0  0  0
 14 15  1  0  0  0  0
 14 16  1  0  0  0  0
 16 17  1  0  0  0  0
 18 16  2  0  0  0  0
 18  8  1  0  0  0  0
 19  5  2  0  0  0  0
 19 13  1  0  0  0  0
M  CHG  1   1  -1
M  END
