1
 OpenBabel05122313063D

 12 11  0  0  0  0  0  0  0  0999 V2000
    0.6557    1.1534   -1.3892 O   0  0  0  0  0  1  0  0  0  0  0  0
    1.3635    0.9252    1.1475 O   0  0  0  0  0  0  0  0  0  0  0  0
    2.1745    0.3681    2.1774 C   0  0  0  0  0  0  0  0  0  0  0  0
    3.1077   -0.0627    1.7519 H   0  0  0  0  0  0  0  0  0  0  0  0
    1.5852   -0.4425    2.6419 H   0  0  0  0  0  0  0  0  0  0  0  0
    2.4265    1.1450    2.9328 H   0  0  0  0  0  0  0  0  0  0  0  0
    2.0129    1.9596    0.4153 C   0  0  0  0  0  0  0  0  0  0  0  0
    2.9776    1.5807    0.0035 H   0  0  0  0  0  0  0  0  0  0  0  0
    2.2218    2.8398    1.0674 H   0  0  0  0  0  0  0  0  0  0  0  0
    1.0532    2.3133   -0.7079 C   0  0  0  0  0  0  0  0  0  0  0  0
    0.1476    2.8114   -0.2873 H   0  0  0  0  0  0  0  0  0  0  0  0
    1.5314    3.0166   -1.4264 H   0  0  0  0  0  0  0  0  0  0  0  0
  1 10  1  0  0  0  0
  2  3  1  0  0  0  0
  3  5  1  0  0  0  0
  3  6  1  0  0  0  0
  4  3  1  0  0  0  0
  7  9  1  0  0  0  0
  7  2  1  0  0  0  0
  8  7  1  0  0  0  0
 10 11  1  0  0  0  0
 10  7  1  0  0  0  0
 12 10  1  0  0  0  0
M  END
