1
 OpenBabel05122313063D

 38 39  0  0  1  0  0  0  0  0999 V2000
   -2.3387    0.4265    0.9082 O   0  5  0  0  0  0  0  0  0  0  0  0
   -1.5154    2.1306   -0.3218 O   0  0  0  0  0  0  0  0  0  0  0  0
    1.0648    1.1300    0.0388 O   0  0  0  0  0  0  0  0  0  0  0  0
    0.7964    2.3705    1.9208 O   0  0  0  0  0  0  0  0  0  0  0  0
    1.1153   -1.7070   -0.0960 O   0  0  0  0  0  0  0  0  0  0  0  0
    2.3641   -0.9608   -1.8581 O   0  0  0  0  0  0  0  0  0  0  0  0
   -1.4496   -2.5057    0.5958 O   0  5  0  0  0  0  0  0  0  0  0  0
   -2.1365   -1.5618   -1.3452 O   0  0  0  0  0  0  0  0  0  0  0  0
   -1.3854    1.0622    0.3364 C   0  0  0  0  0  0  0  0  0  0  0  0
   -0.0435    0.3310    0.4251 C   0  0  1  0  0  0  0  0  0  0  0  0
    0.0627   -0.0140    1.4746 H   0  0  0  0  0  0  0  0  0  0  0  0
    1.4102    2.1341    0.8950 C   0  0  0  0  0  0  0  0  0  0  0  0
    2.6183    2.8622    0.4139 C   0  0  0  0  0  0  0  0  0  0  0  0
    3.3294    2.4545   -0.7351 C   0  0  0  0  0  0  0  0  0  0  0  0
    2.9905    1.5737   -1.3000 H   0  0  0  0  0  0  0  0  0  0  0  0
    4.4663    3.1702   -1.1343 C   0  0  0  0  0  0  0  0  0  0  0  0
    5.0247    2.8523   -2.0278 H   0  0  0  0  0  0  0  0  0  0  0  0
    4.8943    4.2878   -0.3981 C   0  0  0  0  0  0  0  0  0  0  0  0
    5.7875    4.8467   -0.7175 H   0  0  0  0  0  0  0  0  0  0  0  0
    4.1865    4.6925    0.7469 C   0  0  0  0  0  0  0  0  0  0  0  0
    4.5237    5.5670    1.3237 H   0  0  0  0  0  0  0  0  0  0  0  0
    3.0521    3.9805    1.1540 C   0  0  0  0  0  0  0  0  0  0  0  0
    2.4788    4.2691    2.0473 H   0  0  0  0  0  0  0  0  0  0  0  0
   -0.0029   -0.9125   -0.4983 C   0  0  2  0  0  0  0  0  0  0  0  0
    0.1509   -0.5765   -1.5426 H   0  0  0  0  0  0  0  0  0  0  0  0
    2.2516   -1.6366   -0.8490 C   0  0  0  0  0  0  0  0  0  0  0  0
    3.3278   -2.4933   -0.2719 C   0  0  0  0  0  0  0  0  0  0  0  0
    4.5922   -2.4738   -0.8943 C   0  0  0  0  0  0  0  0  0  0  0  0
    4.7300   -1.8304   -1.7756 H   0  0  0  0  0  0  0  0  0  0  0  0
    5.6341   -3.2596   -0.3879 C   0  0  0  0  0  0  0  0  0  0  0  0
    6.6221   -3.2417   -0.8723 H   0  0  0  0  0  0  0  0  0  0  0  0
    5.4168   -4.0712    0.7389 C   0  0  0  0  0  0  0  0  0  0  0  0
    6.2362   -4.6897    1.1365 H   0  0  0  0  0  0  0  0  0  0  0  0
    4.1559   -4.0961    1.3584 C   0  0  0  0  0  0  0  0  0  0  0  0
    3.9872   -4.7346    2.2387 H   0  0  0  0  0  0  0  0  0  0  0  0
    3.1102   -3.3092    0.8580 C   0  0  0  0  0  0  0  0  0  0  0  0
    2.1164   -3.3189    1.3270 H   0  0  0  0  0  0  0  0  0  0  0  0
   -1.2918   -1.7574   -0.3807 C   0  0  0  0  0  0  0  0  0  0  0  0
  2  9  2  0  0  0  0
  3 10  1  0  0  0  0
  3 12  1  0  0  0  0
  6 26  2  0  0  0  0
  8 38  2  0  0  0  0
  9 10  1  0  0  0  0
  9  1  1  0  0  0  0
 10 11  1  1  0  0  0
 12  4  2  0  0  0  0
 13 12  1  0  0  0  0
 13 22  1  0  0  0  0
 14 13  2  0  0  0  0
 15 14  1  0  0  0  0
 16 14  1  0  0  0  0
 16 18  2  0  0  0  0
 17 16  1  0  0  0  0
 18 20  1  0  0  0  0
 19 18  1  0  0  0  0
 20 22  2  0  0  0  0
 20 21  1  0  0  0  0
 22 23  1  0  0  0  0
 24 25  1  6  0  0  0
 24 38  1  0  0  0  0
 24  5  1  0  0  0  0
 24 10  1  0  0  0  0
 26 27  1  0  0  0  0
 26  5  1  0  0  0  0
 27 36  1  0  0  0  0
 28 30  1  0  0  0  0
 28 27  2  0  0  0  0
 29 28  1  0  0  0  0
 30 32  2  0  0  0  0
 31 30  1  0  0  0  0
 32 33  1  0  0  0  0
 32 34  1  0  0  0  0
 34 35  1  0  0  0  0
 36 37  1  0  0  0  0
 36 34  2  0  0  0  0
 38  7  1  0  0  0  0
M  CHG  2   1  -1   7  -1
M  END
