2
 OpenBabel05122313063D

  3  2  0  0  0  0  0  0  0  0999 V2000
   -2.6771   -1.4651    0.7263 C   0  0  0  0  0  0  0  0  0  0  0  0
   -1.5316   -1.2679    0.9959 O   0  0  0  0  0  0  0  0  0  0  0  0
   -3.7964   -1.7249    0.5637 O   0  0  0  0  0  0  0  0  0  0  0  0
  1  2  1  0  0  0  0
  3  1  1  0  0  0  0
M  END
