2
 OpenBabel05122313063D

  3  2  0  0  0  0  0  0  0  0999 V2000
    2.2118    0.0924   -1.8026 S   0  0  0  0  0  0  0  0  0  0  0  0
    0.6021    0.0444   -2.0052 O   0  0  0  0  0  0  0  0  0  0  0  0
    2.7530    1.4790   -1.5712 O   0  0  0  0  0  0  0  0  0  0  0  0
  1  3  1  0  0  0  0
  2  1  1  0  0  0  0
M  END
