1
 OpenBabel05122313063D

 15 15  0  0  1  0  0  0  0  0999 V2000
    1.5659   -0.4931   -0.6823 O   0  5  0  0  0  0  0  0  0  0  0  0
    2.9805   -1.2821    0.9112 O   0  0  0  0  0  0  0  0  0  0  0  0
    6.6141    1.8699    0.7900 O   0  0  0  0  0  0  0  0  0  0  0  0
    5.0004    0.3481    0.1080 N   0  0  0  0  0  0  0  0  0  0  0  0
    5.3192   -0.4456    0.6657 H   0  0  0  0  0  0  0  0  0  0  0  0
    2.7064   -0.5684   -0.0876 C   0  0  0  0  0  0  0  0  0  0  0  0
    3.8123    0.2791   -0.7101 C   0  0  1  0  0  0  0  0  0  0  0  0
    4.0211   -0.1880   -1.7062 H   0  0  0  0  0  0  0  0  0  0  0  0
    5.6112    1.5826    0.1564 C   0  0  0  0  0  0  0  0  0  0  0  0
    4.7830    2.4973   -0.7646 C   0  0  0  0  0  0  0  0  0  0  0  0
    5.3189    2.5791   -1.7350 H   0  0  0  0  0  0  0  0  0  0  0  0
    4.7203    3.5149   -0.3361 H   0  0  0  0  0  0  0  0  0  0  0  0
    3.4388    1.7729   -0.9063 C   0  0  0  0  0  0  0  0  0  0  0  0
    2.9159    1.9431   -1.8651 H   0  0  0  0  0  0  0  0  0  0  0  0
    2.7512    2.0816   -0.0925 H   0  0  0  0  0  0  0  0  0  0  0  0
  1  6  1  0  0  0  0
  4  9  1  0  0  0  0
  4  5  1  0  0  0  0
  6  2  2  0  0  0  0
  7  8  1  6  0  0  0
  7  6  1  0  0  0  0
  7  4  1  0  0  0  0
  9  3  2  0  0  0  0
 10 12  1  0  0  0  0
 10  9  1  0  0  0  0
 11 10  1  0  0  0  0
 13 10  1  0  0  0  0
 13  7  1  0  0  0  0
 13 15  1  0  0  0  0
 14 13  1  0  0  0  0
M  CHG  1   1  -1
M  END
