1
 OpenBabel05122313063D

 17 16  0  0  1  0  0  0  0  0999 V2000
    1.9101   -0.3828   -0.2533 O   0  5  0  0  0  0  0  0  0  0  0  0
    5.3387   -0.8938    0.1506 N   0  0  0  0  0  0  0  0  0  0  0  0
    5.1584   -1.6841    0.7954 H   0  0  0  0  0  0  0  0  0  0  0  0
    6.2851   -0.6416   -0.1484 H   0  0  0  0  0  0  0  0  0  0  0  0
    3.8167    2.1795   -0.3606 C   0  0  0  0  0  0  0  0  0  0  0  0
    3.7908    3.0529   -1.0409 H   0  0  0  0  0  0  0  0  0  0  0  0
    4.5009    2.4159    0.4790 H   0  0  0  0  0  0  0  0  0  0  0  0
    2.7976    2.0129    0.0342 H   0  0  0  0  0  0  0  0  0  0  0  0
    2.9725   -0.8592    0.2597 C   0  0  0  0  0  0  0  0  0  0  0  0
    3.1030   -1.7889    1.1047 O   0  0  0  0  0  0  0  0  0  0  0  0
    4.2645   -0.2557   -0.2500 C   0  0  2  0  0  3  0  0  0  0  0  0
    4.3090    0.9380   -1.1468 C   0  0  0  0  0  0  0  0  0  0  0  0
    3.5404    0.7342   -1.9245 H   0  0  0  0  0  0  0  0  0  0  0  0
    5.6727    1.1702   -1.8023 C   0  0  0  0  0  0  0  0  0  0  0  0
    6.0131    0.2904   -2.3856 H   0  0  0  0  0  0  0  0  0  0  0  0
    6.4522    1.4291   -1.0537 H   0  0  0  0  0  0  0  0  0  0  0  0
    5.6151    2.0247   -2.5029 H   0  0  0  0  0  0  0  0  0  0  0  0
  1  9  1  0  0  0  0
  2  3  1  0  0  0  0
  4  2  1  0  0  0  0
  5  8  1  0  0  0  0
  5  7  1  0  0  0  0
  6  5  1  0  0  0  0
  9 10  2  0  0  0  0
 11  2  1  0  0  0  0
 11  9  1  6  0  0  0
 12  5  1  0  0  0  0
 12 11  1  0  0  0  0
 13 12  1  0  0  0  0
 14 12  1  0  0  0  0
 14 16  1  0  0  0  0
 15 14  1  0  0  0  0
 17 14  1  0  0  0  0
M  CHG  1   1  -1
M  END
