1
 OpenBabel05122313063D

 31 32  0  0  1  0  0  0  0  0999 V2000
    1.1605   -0.7507    1.1043 O   0  0  0  0  0  1  0  0  0  0  0  0
    0.3199   -0.0927   -2.6115 C   0  0  0  0  0  3  0  0  0  0  0  0
    1.6967   -0.1802   -2.2832 C   0  0  0  0  0  3  0  0  0  0  0  0
    2.5928    1.0436   -2.2226 C   0  0  0  0  0  0  0  0  0  0  0  0
    3.0698    1.5097   -0.8533 C   0  0  0  0  0  0  0  0  0  0  0  0
    3.6685    2.7821   -0.7395 C   0  0  0  0  0  0  0  0  0  0  0  0
    4.0546    3.3031    0.5019 C   0  0  0  0  0  0  0  0  0  0  0  0
    3.8409    2.5495    1.6687 C   0  0  0  0  0  0  0  0  0  0  0  0
    3.2561    1.2823    1.5714 C   0  0  0  0  0  0  0  0  0  0  0  0
    2.8743    0.7444    0.3219 C   0  0  0  0  0  0  0  0  0  0  0  0
    2.2136   -0.6124    0.3229 C   0  0  1  0  0  3  0  0  0  0  0  0
    3.0181   -1.8261   -0.0146 C   0  0  0  0  0  0  0  0  0  0  0  0
    4.2706   -1.7375   -0.6608 C   0  0  0  0  0  0  0  0  0  0  0  0
    4.9908   -2.8970   -0.9834 C   0  0  0  0  0  0  0  0  0  0  0  0
    4.4779   -4.1630   -0.6591 C   0  0  0  0  0  0  0  0  0  0  0  0
    3.2399   -4.2596    0.0009 C   0  0  0  0  0  0  0  0  0  0  0  0
    2.5190   -3.1041    0.3232 C   0  0  0  0  0  0  0  0  0  0  0  0
   -0.1904   -0.9577   -3.0722 H   0  0  0  0  0  0  0  0  0  0  0  0
   -0.1175    0.8879   -2.8768 H   0  0  0  0  0  0  0  0  0  0  0  0
    2.2100   -1.1428   -2.4546 H   0  0  0  0  0  0  0  0  0  0  0  0
    3.4879    0.8646   -2.8606 H   0  0  0  0  0  0  0  0  0  0  0  0
    2.0672    1.9018   -2.6953 H   0  0  0  0  0  0  0  0  0  0  0  0
    3.8104    3.3851   -1.6513 H   0  0  0  0  0  0  0  0  0  0  0  0
    4.5087    4.3040    0.5614 H   0  0  0  0  0  0  0  0  0  0  0  0
    4.1302    2.9513    2.6518 H   0  0  0  0  0  0  0  0  0  0  0  0
    3.0777    0.6789    2.4743 H   0  0  0  0  0  0  0  0  0  0  0  0
    4.6855   -0.7475   -0.9030 H   0  0  0  0  0  0  0  0  0  0  0  0
    5.9657   -2.8101   -1.4878 H   0  0  0  0  0  0  0  0  0  0  0  0
    5.0444   -5.0722   -0.9120 H   0  0  0  0  0  0  0  0  0  0  0  0
    2.8368   -5.2481    0.2712 H   0  0  0  0  0  0  0  0  0  0  0  0
    1.5565   -3.1616    0.8525 H   0  0  0  0  0  0  0  0  0  0  0  0
  2  3  1  0  0  0  0
  3  4  1  0  0  0  0
  4  5  1  0  0  0  0
  5  6  2  0  0  0  0
  5 10  1  0  0  0  0
  6  7  1  0  0  0  0
  7 24  1  0  0  0  0
  7  8  2  0  0  0  0
  8 25  1  0  0  0  0
  9  8  1  0  0  0  0
  9 26  1  0  0  0  0
 10 11  1  0  0  0  0
 10  9  2  0  0  0  0
 11  1  1  1  0  0  0
 12 11  1  0  0  0  0
 12 17  1  0  0  0  0
 13 12  2  0  0  0  0
 14 13  1  0  0  0  0
 14 15  2  0  0  0  0
 15 16  1  0  0  0  0
 16 30  1  0  0  0  0
 16 17  2  0  0  0  0
 17 31  1  0  0  0  0
 18  2  1  0  0  0  0
 19  2  1  0  0  0  0
 20  3  1  0  0  0  0
 21  4  1  0  0  0  0
 22  4  1  0  0  0  0
 23  6  1  0  0  0  0
 27 13  1  0  0  0  0
 28 14  1  0  0  0  0
 29 15  1  0  0  0  0
M  END
