1
 OpenBabel05122313063D

 17 17  0  0  0  0  0  0  0  0999 V2000
   -1.4203   -1.2388   -0.7608 O   0  0  0  0  0  1  0  0  0  0  0  0
   -1.9006    0.0003   -0.6879 C   0  0  0  0  0  3  0  0  0  0  0  0
   -2.1391    0.5133   -1.6541 H   0  0  0  0  0  0  0  0  0  0  0  0
   -2.8945    0.3220    0.4270 C   0  0  0  0  0  0  0  0  0  0  0  0
   -2.5211   -0.1366    1.3684 H   0  0  0  0  0  0  0  0  0  0  0  0
   -2.9412    1.4184    0.5918 H   0  0  0  0  0  0  0  0  0  0  0  0
   -4.2890   -0.1989    0.1345 C   0  0  0  0  0  0  0  0  0  0  0  0
   -5.4053    0.6599    0.1253 C   0  0  0  0  0  0  0  0  0  0  0  0
   -5.2613    1.7315    0.3397 H   0  0  0  0  0  0  0  0  0  0  0  0
   -6.6925    0.1696   -0.1484 C   0  0  0  0  0  0  0  0  0  0  0  0
   -7.5521    0.8580   -0.1492 H   0  0  0  0  0  0  0  0  0  0  0  0
   -6.8821   -1.1934   -0.4215 C   0  0  0  0  0  0  0  0  0  0  0  0
   -7.8899   -1.5809   -0.6361 H   0  0  0  0  0  0  0  0  0  0  0  0
   -5.7747   -2.0588   -0.4233 C   0  0  0  0  0  0  0  0  0  0  0  0
   -5.9136   -3.1289   -0.6433 H   0  0  0  0  0  0  0  0  0  0  0  0
   -4.4911   -1.5670   -0.1501 C   0  0  0  0  0  0  0  0  0  0  0  0
   -3.6155   -2.2338   -0.1715 H   0  0  0  0  0  0  0  0  0  0  0  0
  1  2  1  0  0  0  0
  2  4  1  0  0  0  0
  3  2  1  0  0  0  0
  4  6  1  0  0  0  0
  4  5  1  0  0  0  0
  7  4  1  0  0  0  0
  8  7  1  0  0  0  0
  8  9  1  0  0  0  0
 10  8  2  0  0  0  0
 11 10  1  0  0  0  0
 12 10  1  0  0  0  0
 13 12  1  0  0  0  0
 14 12  2  0  0  0  0
 14 16  1  0  0  0  0
 15 14  1  0  0  0  0
 16  7  2  0  0  0  0
 17 16  1  0  0  0  0
M  END
