1
 OpenBabel05122313063D

 61 63  0  0  1  0  0  0  0  0999 V2000
    0.9229    0.3368   -0.4644 O   0  5  0  0  0  0  0  0  0  0  0  0
   -0.3424    0.1588   -0.2986 C   0  0  0  0  0  0  0  0  0  0  0  0
   -1.2853    1.2294   -0.3989 C   0  0  0  0  0  0  0  0  0  0  0  0
   -0.8713    2.5864   -0.5911 C   0  0  0  0  0  0  0  0  0  0  0  0
   -1.9125    3.6615   -0.7444 C   0  0  0  0  0  0  0  0  0  0  0  0
   -2.1524    4.1280    0.2329 H   0  0  0  0  0  0  0  0  0  0  0  0
   -2.8502    3.2169   -1.1221 H   0  0  0  0  0  0  0  0  0  0  0  0
   -1.5800    4.4622   -1.4275 H   0  0  0  0  0  0  0  0  0  0  0  0
    0.4369    2.8869   -0.6438 N   0  0  0  0  0  4  0  0  0  0  0  0
    1.0254    2.0275   -0.5958 H   0  0  0  0  0  0  0  0  0  0  0  0
    1.1535    4.1808   -0.7467 C   0  0  0  0  0  0  0  0  0  0  0  0
    1.0644    4.7371   -2.1826 C   0  0  0  0  0  0  0  0  0  0  0  0
    1.4476    3.9940   -2.9093 H   0  0  0  0  0  0  0  0  0  0  0  0
    1.6787    5.6553   -2.2705 H   0  0  0  0  0  0  0  0  0  0  0  0
    0.0279    4.9984   -2.4714 H   0  0  0  0  0  0  0  0  0  0  0  0
    0.6456    5.2055    0.2858 C   0  0  0  0  0  0  0  0  0  0  0  0
   -0.3648    5.5890    0.0566 H   0  0  0  0  0  0  0  0  0  0  0  0
    1.3318    6.0749    0.3037 H   0  0  0  0  0  0  0  0  0  0  0  0
    0.6327    4.7603    1.3005 H   0  0  0  0  0  0  0  0  0  0  0  0
    2.6252    3.8583   -0.4280 C   0  0  0  0  0  0  0  0  0  0  0  0
    2.7311    3.4454    0.5946 H   0  0  0  0  0  0  0  0  0  0  0  0
    3.2370    4.7782   -0.4935 H   0  0  0  0  0  0  0  0  0  0  0  0
    3.0414    3.1255   -1.1464 H   0  0  0  0  0  0  0  0  0  0  0  0
   -2.7287    0.8879   -0.3132 C   0  0  0  0  0  0  0  0  0  0  0  0
   -3.6279    1.3133    0.6330 C   0  0  0  0  0  0  0  0  0  0  0  0
   -3.4289    2.1143    1.8790 C   0  0  0  0  0  0  0  0  0  0  0  0
   -3.9807    3.0831    1.8133 H   0  0  0  0  0  0  0  0  0  0  0  0
   -2.3565    2.3689    2.0113 H   0  0  0  0  0  0  0  0  0  0  0  0
   -3.9542    1.3378    3.1099 C   0  0  0  0  0  0  0  0  0  0  0  0
   -3.2582    0.4972    3.3261 H   0  0  0  0  0  0  0  0  0  0  0  0
   -3.9439    1.9932    4.0056 H   0  0  0  0  0  0  0  0  0  0  0  0
   -5.3594    0.7661    2.8762 C   0  0  0  0  0  0  0  0  0  0  0  0
   -6.0843    1.6023    2.7503 H   0  0  0  0  0  0  0  0  0  0  0  0
   -5.6911    0.1997    3.7715 H   0  0  0  0  0  0  0  0  0  0  0  0
   -5.4061   -0.1397    1.6380 C   0  0  0  0  0  0  0  0  0  0  0  0
   -6.4184   -0.5649    1.4802 H   0  0  0  0  0  0  0  0  0  0  0  0
   -4.7128   -0.9981    1.7760 H   0  0  0  0  0  0  0  0  0  0  0  0
   -4.9612    0.6423    0.3832 C   0  0  2  0  0  0  0  0  0  0  0  0
   -5.7457    1.3996    0.1444 H   0  0  0  0  0  0  0  0  0  0  0  0
   -4.6929   -0.2024   -0.8359 C   0  0  0  0  0  0  0  0  0  0  0  0
   -3.3953   -0.0466   -1.2428 C   0  0  0  0  0  0  0  0  0  0  0  0
   -2.8966   -0.5264   -2.0925 H   0  0  0  0  0  0  0  0  0  0  0  0
   -5.6923   -0.9599   -1.3281 O   0  0  0  0  0  0  0  0  0  0  0  0
   -5.3531   -1.8100   -2.4275 C   0  0  0  0  0  0  0  0  0  0  0  0
   -4.4966   -2.4597   -2.1322 H   0  0  0  0  0  0  0  0  0  0  0  0
   -5.0086   -1.1824   -3.2825 H   0  0  0  0  0  0  0  0  0  0  0  0
   -6.5739   -2.6280   -2.7973 C   0  0  0  0  0  0  0  0  0  0  0  0
   -6.9030   -3.2514   -1.9425 H   0  0  0  0  0  0  0  0  0  0  0  0
   -6.3423   -3.2981   -3.6485 H   0  0  0  0  0  0  0  0  0  0  0  0
   -7.4159   -1.9703   -3.0906 H   0  0  0  0  0  0  0  0  0  0  0  0
   -0.8196   -1.2224    0.0162 C   0  0  0  0  0  0  0  0  0  0  0  0
   -0.5485   -2.2773   -0.8785 C   0  0  0  0  0  0  0  0  0  0  0  0
   -0.0213   -2.0664   -1.8198 H   0  0  0  0  0  0  0  0  0  0  0  0
   -0.9633   -3.5819   -0.5788 C   0  0  0  0  0  0  0  0  0  0  0  0
   -0.7483   -4.3983   -1.2846 H   0  0  0  0  0  0  0  0  0  0  0  0
   -1.6396   -3.8451    0.6234 C   0  0  0  0  0  0  0  0  0  0  0  0
   -1.9551   -4.8714    0.8646 H   0  0  0  0  0  0  0  0  0  0  0  0
   -1.9055   -2.7986    1.5218 C   0  0  0  0  0  0  0  0  0  0  0  0
   -2.4240   -3.0044    2.4705 H   0  0  0  0  0  0  0  0  0  0  0  0
   -1.5044   -1.4917    1.2174 C   0  0  0  0  0  0  0  0  0  0  0  0
   -1.7107   -0.6684    1.9157 H   0  0  0  0  0  0  0  0  0  0  0  0
  1  2  1  0  0  0  0
  2 51  1  0  0  0  0
  3 24  1  0  0  0  0
  3  2  2  0  0  0  0
  4  3  1  0  0  0  0
  5  4  1  0  0  0  0
  5  6  1  0  0  0  0
  7  5  1  0  0  0  0
  8  5  1  0  0  0  0
  9 10  1  0  0  0  0
  9  4  2  0  0  0  0
 11  9  1  0  0  0  0
 11 20  1  0  0  0  0
 11 16  1  0  0  0  0
 12 11  1  0  0  0  0
 13 12  1  0  0  0  0
 14 12  1  0  0  0  0
 15 12  1  0  0  0  0
 16 18  1  0  0  0  0
 16 19  1  0  0  0  0
 17 16  1  0  0  0  0
 20 21  1  0  0  0  0
 22 20  1  0  0  0  0
 23 20  1  0  0  0  0
 24 25  2  0  0  0  0
 25 26  1  0  0  0  0
 26 28  1  0  0  0  0
 26 29  1  0  0  0  0
 27 26  1  0  0  0  0
 29 30  1  0  0  0  0
 29 31  1  0  0  0  0
 32 29  1  0  0  0  0
 32 34  1  0  0  0  0
 33 32  1  0  0  0  0
 35 37  1  0  0  0  0
 35 32  1  0  0  0  0
 36 35  1  0  0  0  0
 38 39  1  6  0  0  0
 38 25  1  0  0  0  0
 38 35  1  0  0  0  0
 40 38  1  0  0  0  0
 41 40  2  0  0  0  0
 41 24  1  0  0  0  0
 42 41  1  0  0  0  0
 43 40  1  0  0  0  0
 44 45  1  0  0  0  0
 44 43  1  0  0  0  0
 46 44  1  0  0  0  0
 47 44  1  0  0  0  0
 47 48  1  0  0  0  0
 49 47  1  0  0  0  0
 50 47  1  0  0  0  0
 51 60  1  0  0  0  0
 52 54  1  0  0  0  0
 52 51  2  0  0  0  0
 53 52  1  0  0  0  0
 54 56  2  0  0  0  0
 55 54  1  0  0  0  0
 56 57  1  0  0  0  0
 56 58  1  0  0  0  0
 58 59  1  0  0  0  0
 60 58  2  0  0  0  0
 60 61  1  0  0  0  0
M  CHG  1   1  -1
M  END
