2
 OpenBabel05122313063D

 20 21  0  0  0  0  0  0  0  0999 V2000
   -2.6667   -2.0212    0.9170 N   0  0  0  0  0  0  0  0  0  0  0  0
   -0.6421    0.1548    1.9003 O   0  5  0  0  0  0  0  0  0  0  0  0
    0.4555   -0.2485    3.8444 O   0  0  0  0  0  0  0  0  0  0  0  0
   -4.7589   -0.5186    0.3677 S   0  0  0  0  0  0  0  0  0  0  0  0
   -3.3799   -0.3978    3.0243 S   0  0  0  0  0  0  0  0  0  0  0  0
   -0.5517   -0.2937    3.0899 C   0  0  0  0  0  0  0  0  0  0  0  0
   -1.7858   -1.0241    3.6393 C   0  0  0  0  0  0  0  0  0  0  0  0
   -1.8252   -0.9380    4.7414 H   0  0  0  0  0  0  0  0  0  0  0  0
   -1.7124   -2.1004    3.3780 H   0  0  0  0  0  0  0  0  0  0  0  0
   -3.4440   -1.1009    1.4272 C   0  0  0  0  0  0  0  0  0  0  0  0
   -3.0621   -2.3507   -0.3687 C   0  0  0  0  0  0  0  0  0  0  0  0
   -4.2080   -1.6451   -0.8546 C   0  0  0  0  0  0  0  0  0  0  0  0
   -4.7393   -1.8825   -2.1313 C   0  0  0  0  0  0  0  0  0  0  0  0
   -5.6329   -1.3464   -2.4823 H   0  0  0  0  0  0  0  0  0  0  0  0
   -4.1011   -2.8274   -2.9491 C   0  0  0  0  0  0  0  0  0  0  0  0
   -4.5035   -3.0351   -3.9516 H   0  0  0  0  0  0  0  0  0  0  0  0
   -2.9598   -3.5228   -2.4935 C   0  0  0  0  0  0  0  0  0  0  0  0
   -2.4823   -4.2667   -3.1484 H   0  0  0  0  0  0  0  0  0  0  0  0
   -2.4404   -3.2967   -1.2126 C   0  0  0  0  0  0  0  0  0  0  0  0
   -1.5664   -3.8552   -0.8493 H   0  0  0  0  0  0  0  0  0  0  0  0
  1 10  2  0  0  0  0
  2  6  1  0  0  0  0
  4 10  1  0  0  0  0
  5  7  1  0  0  0  0
  6  7  1  0  0  0  0
  6  3  2  0  0  0  0
  7  8  1  0  0  0  0
  9  7  1  0  0  0  0
 10  5  1  0  0  0  0
 11  1  1  0  0  0  0
 12 11  1  0  0  0  0
 12  4  1  0  0  0  0
 13 12  2  0  0  0  0
 14 13  1  0  0  0  0
 15 17  2  0  0  0  0
 15 13  1  0  0  0  0
 16 15  1  0  0  0  0
 17 19  1  0  0  0  0
 18 17  1  0  0  0  0
 19 20  1  0  0  0  0
 19 11  2  0  0  0  0
M  CHG  1   2  -1
M  END
