11
 OpenBabel05122313063D

 12 12  0  0  0  0  0  0  0  0999 V2000
    2.5633   -0.5593    0.0317 C   0  0  0  0  0  0  0  0  0  0  0  0
    3.8502    0.1390   -0.1595 C   0  0  0  0  0  0  0  0  0  0  0  0
    5.1585   -0.3047    0.0833 C   0  0  0  0  0  0  0  0  0  0  0  0
    5.6151   -1.6263    0.6037 C   0  0  0  0  0  0  0  0  0  0  0  0
    4.7616   -2.3029    0.7724 H   0  0  0  0  0  0  0  0  0  0  0  0
    6.1711   -1.4846    1.5531 H   0  0  0  0  0  0  0  0  0  0  0  0
    6.3260   -2.0863   -0.1123 H   0  0  0  0  0  0  0  0  0  0  0  0
    6.0950    0.6590   -0.2191 N   0  0  0  0  0  0  0  0  0  0  0  0
    5.6544    1.7713   -0.6574 N   0  0  0  0  0  0  0  0  0  0  0  0
    3.8955    1.7545   -0.7590 S   0  0  0  0  0  0  0  0  0  0  0  0
    1.5028    0.1022   -0.2758 O   0  5  0  0  0  0  0  0  0  0  0  0
    2.5362   -1.7543    0.4848 O   0  0  0  0  0  0  0  0  0  0  0  0
  1 12  2  0  0  0  0
  2  1  1  0  0  0  0
  2  3  2  0  0  0  0
  3  4  1  0  0  0  0
  4  5  1  0  0  0  0
  4  6  1  0  0  0  0
  7  4  1  0  0  0  0
  8  3  1  0  0  0  0
  9  8  2  0  0  0  0
 10  9  1  0  0  0  0
 10  2  1  0  0  0  0
 11  1  1  0  0  0  0
M  CHG  1  11  -1
M  END
