1
 OpenBabel05122313063D

 42 42  0  0  0  0  0  0  0  0999 V2000
   -0.0255   -0.7801   -0.6795 O   0  5  0  0  0  0  0  0  0  0  0  0
    1.3019   -0.5180   -0.7216 C   0  0  0  0  0  0  0  0  0  0  0  0
    2.2171   -1.6043   -0.6561 C   0  0  0  0  0  0  0  0  0  0  0  0
    3.5881   -1.3068   -0.6954 C   0  0  0  0  0  0  0  0  0  0  0  0
    4.3147   -2.1325   -0.6474 H   0  0  0  0  0  0  0  0  0  0  0  0
    4.0679    0.0114   -0.8081 C   0  0  0  0  0  0  0  0  0  0  0  0
    3.1294    1.0547   -0.9041 C   0  0  0  0  0  0  0  0  0  0  0  0
    3.4940    2.0871   -1.0187 H   0  0  0  0  0  0  0  0  0  0  0  0
    1.7448    0.8235   -0.8745 C   0  0  0  0  0  0  0  0  0  0  0  0
    0.7384    1.9403   -1.0825 C   0  0  0  0  0  0  0  0  0  0  0  0
   -0.1837    1.6516   -0.5409 H   0  0  0  0  0  0  0  0  0  0  0  0
    0.3594    2.0454   -2.5719 C   0  0  0  0  0  0  0  0  0  0  0  0
    1.2475    2.3047   -3.1848 H   0  0  0  0  0  0  0  0  0  0  0  0
   -0.4078    2.8329   -2.7201 H   0  0  0  0  0  0  0  0  0  0  0  0
   -0.0582    1.0914   -2.9481 H   0  0  0  0  0  0  0  0  0  0  0  0
    1.1909    3.2940   -0.5245 C   0  0  0  0  0  0  0  0  0  0  0  0
    1.5007    3.2168    0.5376 H   0  0  0  0  0  0  0  0  0  0  0  0
    0.3603    4.0239   -0.5839 H   0  0  0  0  0  0  0  0  0  0  0  0
    2.0437    3.7145   -1.0971 H   0  0  0  0  0  0  0  0  0  0  0  0
    1.6965   -3.0275   -0.5308 C   0  0  0  0  0  0  0  0  0  0  0  0
    0.7299   -3.0646   -1.0748 H   0  0  0  0  0  0  0  0  0  0  0  0
    1.3906   -3.3551    0.9410 C   0  0  0  0  0  0  0  0  0  0  0  0
    2.3177   -3.3351    1.5510 H   0  0  0  0  0  0  0  0  0  0  0  0
    0.9269   -4.3578    1.0374 H   0  0  0  0  0  0  0  0  0  0  0  0
    0.6829   -2.6204    1.3685 H   0  0  0  0  0  0  0  0  0  0  0  0
    2.6223   -4.0811   -1.1487 C   0  0  0  0  0  0  0  0  0  0  0  0
    2.8800   -3.8338   -2.1980 H   0  0  0  0  0  0  0  0  0  0  0  0
    2.1260   -5.0723   -1.1427 H   0  0  0  0  0  0  0  0  0  0  0  0
    3.5702   -4.1895   -0.5811 H   0  0  0  0  0  0  0  0  0  0  0  0
    5.5491    0.3032   -0.7741 C   0  0  0  0  0  0  0  0  0  0  0  0
    6.1084   -0.5428   -1.2289 H   0  0  0  0  0  0  0  0  0  0  0  0
    5.7699    1.1961   -1.3981 H   0  0  0  0  0  0  0  0  0  0  0  0
    6.0782    0.5457    0.6508 C   0  0  0  0  0  0  0  0  0  0  0  0
    5.8506   -0.3455    1.2773 H   0  0  0  0  0  0  0  0  0  0  0  0
    5.5091    1.3849    1.1093 H   0  0  0  0  0  0  0  0  0  0  0  0
    7.5782    0.8473    0.7066 C   0  0  0  0  0  0  0  0  0  0  0  0
    7.7947    1.7356    0.0719 H   0  0  0  0  0  0  0  0  0  0  0  0
    8.1366    0.0053    0.2399 H   0  0  0  0  0  0  0  0  0  0  0  0
    8.0965    1.0875    2.1249 C   0  0  0  0  0  0  0  0  0  0  0  0
    7.5802    1.9465    2.6024 H   0  0  0  0  0  0  0  0  0  0  0  0
    9.1839    1.3036    2.1350 H   0  0  0  0  0  0  0  0  0  0  0  0
    7.9256    0.2015    2.7717 H   0  0  0  0  0  0  0  0  0  0  0  0
  2  1  1  0  0  0  0
  2  3  1  0  0  0  0
  3 20  1  0  0  0  0
  4  3  2  0  0  0  0
  4  5  1  0  0  0  0
  6 30  1  0  0  0  0
  6  4  1  0  0  0  0
  7  9  1  0  0  0  0
  7  6  2  0  0  0  0
  8  7  1  0  0  0  0
  9  2  2  0  0  0  0
 10  9  1  0  0  0  0
 10 11  1  0  0  0  0
 10 16  1  0  0  0  0
 12 10  1  0  0  0  0
 13 12  1  0  0  0  0
 14 12  1  0  0  0  0
 15 12  1  0  0  0  0
 16 17  1  0  0  0  0
 18 16  1  0  0  0  0
 19 16  1  0  0  0  0
 20 22  1  0  0  0  0
 21 20  1  0  0  0  0
 22 24  1  0  0  0  0
 22 25  1  0  0  0  0
 22 23  1  0  0  0  0
 26 28  1  0  0  0  0
 26 29  1  0  0  0  0
 26 20  1  0  0  0  0
 27 26  1  0  0  0  0
 30 33  1  0  0  0  0
 31 30  1  0  0  0  0
 32 30  1  0  0  0  0
 33 36  1  0  0  0  0
 33 35  1  0  0  0  0
 33 34  1  0  0  0  0
 36 39  1  0  0  0  0
 37 36  1  0  0  0  0
 38 36  1  0  0  0  0
 39 41  1  0  0  0  0
 39 40  1  0  0  0  0
 39 42  1  0  0  0  0
M  CHG  1   1  -1
M  END
