3
 OpenBabel05122313063D

 33 34  0  0  0  0  0  0  0  0999 V2000
    3.4682    0.4682   -1.1253 N   0  0  0  0  0  4  0  0  0  0  0  0
    2.6415   -0.1860   -1.0865 H   0  0  0  0  0  0  0  0  0  0  0  0
    0.9576   -0.0920   -1.3611 O   0  5  0  0  0  0  0  0  0  0  0  0
   -2.0827    3.4969   -2.3433 O   0  0  0  0  0  0  0  0  0  0  0  0
    1.8078    2.0878   -1.8013 C   0  0  0  0  0  0  0  0  0  0  0  0
    0.7054    1.1459   -1.6667 C   0  0  0  0  0  0  0  0  0  0  0  0
   -0.6205    1.6241   -1.8536 C   0  0  0  0  0  0  0  0  0  0  0  0
   -1.4314    0.8928   -1.7311 H   0  0  0  0  0  0  0  0  0  0  0  0
   -0.8513    2.9667   -2.1648 C   0  0  0  0  0  0  0  0  0  0  0  0
    0.2313    3.8898   -2.3183 C   0  0  0  0  0  0  0  0  0  0  0  0
   -0.0029    4.9328   -2.5700 H   0  0  0  0  0  0  0  0  0  0  0  0
    1.5251    3.4456   -2.1386 C   0  0  0  0  0  0  0  0  0  0  0  0
    2.3667    4.1498   -2.2424 H   0  0  0  0  0  0  0  0  0  0  0  0
   -3.2062    2.6441   -2.1708 C   0  0  0  0  0  0  0  0  0  0  0  0
   -3.1927    1.7924   -2.8847 H   0  0  0  0  0  0  0  0  0  0  0  0
   -4.1015    3.2656   -2.3550 H   0  0  0  0  0  0  0  0  0  0  0  0
   -3.2446    2.2328   -1.1398 H   0  0  0  0  0  0  0  0  0  0  0  0
    3.1339    1.6891   -1.5000 C   0  0  0  0  0  0  0  0  0  0  0  0
    3.9472    2.4369   -1.5454 H   0  0  0  0  0  0  0  0  0  0  0  0
    4.7706    0.0512   -0.6404 C   0  0  0  0  0  0  0  0  0  0  0  0
    5.4983    0.8362   -0.9433 H   0  0  0  0  0  0  0  0  0  0  0  0
    4.8224   -0.1152    0.8937 C   0  0  0  0  0  0  0  0  0  0  0  0
    4.8227    0.8563    1.4258 H   0  0  0  0  0  0  0  0  0  0  0  0
    3.9208   -0.6826    1.2137 H   0  0  0  0  0  0  0  0  0  0  0  0
    6.0722   -0.9775    1.0872 C   0  0  0  0  0  0  0  0  0  0  0  0
    6.9859   -0.3611    0.9373 H   0  0  0  0  0  0  0  0  0  0  0  0
    6.1384   -1.4192    2.1010 H   0  0  0  0  0  0  0  0  0  0  0  0
    5.9455   -2.0386   -0.0270 C   0  0  0  0  0  0  0  0  0  0  0  0
    5.3283   -2.8839    0.3383 H   0  0  0  0  0  0  0  0  0  0  0  0
    6.9253   -2.4558   -0.3313 H   0  0  0  0  0  0  0  0  0  0  0  0
    5.2049   -1.3327   -1.1942 C   0  0  0  0  0  0  0  0  0  0  0  0
    5.8278   -1.2185   -2.1032 H   0  0  0  0  0  0  0  0  0  0  0  0
    4.3014   -1.9061   -1.4849 H   0  0  0  0  0  0  0  0  0  0  0  0
  1  2  1  0  0  0  0
  1 20  1  0  0  0  0
  4 14  1  0  0  0  0
  4  9  1  0  0  0  0
  5  6  1  0  0  0  0
  5 18  1  0  0  0  0
  6  3  1  0  0  0  0
  7  8  1  0  0  0  0
  7  6  2  0  0  0  0
  9  7  1  0  0  0  0
 10  9  2  0  0  0  0
 10 12  1  0  0  0  0
 11 10  1  0  0  0  0
 12  5  2  0  0  0  0
 13 12  1  0  0  0  0
 14 17  1  0  0  0  0
 15 14  1  0  0  0  0
 16 14  1  0  0  0  0
 18  1  2  0  0  0  0
 19 18  1  0  0  0  0
 20 22  1  0  0  0  0
 21 20  1  0  0  0  0
 22 25  1  0  0  0  0
 22 24  1  0  0  0  0
 22 23  1  0  0  0  0
 25 27  1  0  0  0  0
 26 25  1  0  0  0  0
 28 29  1  0  0  0  0
 28 25  1  0  0  0  0
 30 28  1  0  0  0  0
 31 20  1  0  0  0  0
 31 28  1  0  0  0  0
 32 31  1  0  0  0  0
 33 31  1  0  0  0  0
M  CHG  1   3  -1
M  END
