1
 OpenBabel05122313063D

 14 14  0  0  0  0  0  0  0  0999 V2000
    0.6926   -0.7184    1.6198 O   0  0  0  0  0  1  0  0  0  0  0  0
    1.8232   -1.1679    1.1647 N   0  0  0  0  0  0  0  0  0  0  0  0
    5.7626   -2.4142   -1.4810 O   0  0  0  0  0  0  0  0  0  0  0  0
    6.4504   -2.7464    0.5784 O   0  0  0  0  0  0  0  0  0  0  0  0
    5.6049   -2.4444   -0.2600 N   0  0  0  0  0  0  0  0  0  0  0  0
    4.0632   -1.8917    1.6205 C   0  0  0  0  0  0  0  0  0  0  0  0
    4.8768   -2.0983    2.3286 H   0  0  0  0  0  0  0  0  0  0  0  0
    2.0173   -1.3704   -0.1828 C   0  0  0  0  0  3  0  0  0  0  0  0
    1.1453   -1.1342   -0.8085 H   0  0  0  0  0  0  0  0  0  0  0  0
    2.8297   -1.4407    2.0620 C   0  0  0  0  0  0  0  0  0  0  0  0
    2.5649   -1.2519    3.1096 H   0  0  0  0  0  0  0  0  0  0  0  0
    4.2721   -2.0565    0.2438 C   0  0  0  0  0  0  0  0  0  0  0  0
    3.2360   -1.8172   -0.6653 C   0  0  0  0  0  0  0  0  0  0  0  0
    3.4025   -1.9609   -1.7407 H   0  0  0  0  0  0  0  0  0  0  0  0
  2  1  1  0  0  0  0
  2 10  1  0  0  0  0
  3  5  2  0  0  0  0
  5 12  1  0  0  0  0
  5  4  2  0  0  0  0
  6 10  2  0  0  0  0
  6  7  1  0  0  0  0
  8  2  1  0  0  0  0
  9  8  1  0  0  0  0
 10 11  1  0  0  0  0
 12  6  1  0  0  0  0
 13  8  1  0  0  0  0
 13 12  2  0  0  0  0
 14 13  1  0  0  0  0
M  END
