1
 OpenBabel05122313063D

 21 21  0  0  0  0  0  0  0  0999 V2000
    1.4240    0.9556   -1.2923 O   0  5  0  0  0  0  0  0  0  0  0  0
    3.2573   -2.5325    1.3881 O   0  0  0  0  0  0  0  0  0  0  0  0
    2.4038    0.2616   -0.7558 C   0  0  0  0  0  0  0  0  0  0  0  0
    2.2605   -0.8086    0.1054 C   0  0  0  0  0  0  0  0  0  0  0  0
    3.3833   -1.5563    0.6339 C   0  0  0  0  0  0  0  0  0  0  0  0
    4.7801   -1.1079    0.1822 C   0  0  0  0  0  0  0  0  0  0  0  0
    4.8894    0.3910   -0.1637 C   0  0  0  0  0  0  0  0  0  0  0  0
    3.7815    0.7263   -1.1868 C   0  0  0  0  0  0  0  0  0  0  0  0
    6.2628    0.6926   -0.7830 C   0  0  0  0  0  0  0  0  0  0  0  0
    6.3542    1.7658   -1.0532 H   0  0  0  0  0  0  0  0  0  0  0  0
    6.4294    0.0947   -1.7032 H   0  0  0  0  0  0  0  0  0  0  0  0
    7.0788    0.4515   -0.0710 H   0  0  0  0  0  0  0  0  0  0  0  0
    4.7100    1.2422    1.1085 C   0  0  0  0  0  0  0  0  0  0  0  0
    4.7840    2.3244    0.8731 H   0  0  0  0  0  0  0  0  0  0  0  0
    5.4970    1.0018    1.8523 H   0  0  0  0  0  0  0  0  0  0  0  0
    3.7258    1.0586    1.5839 H   0  0  0  0  0  0  0  0  0  0  0  0
    1.2592   -1.1125    0.4334 H   0  0  0  0  0  0  0  0  0  0  0  0
    5.4990   -1.4007    0.9746 H   0  0  0  0  0  0  0  0  0  0  0  0
    5.0421   -1.7115   -0.7173 H   0  0  0  0  0  0  0  0  0  0  0  0
    4.0212    0.2494   -2.1652 H   0  0  0  0  0  0  0  0  0  0  0  0
    3.7370    1.8189   -1.3809 H   0  0  0  0  0  0  0  0  0  0  0  0
  1  3  1  0  0  0  0
  3  4  2  0  0  0  0
  4 17  1  0  0  0  0
  4  5  1  0  0  0  0
  5  2  2  0  0  0  0
  6  5  1  0  0  0  0
  6 18  1  0  0  0  0
  7  6  1  0  0  0  0
  7 13  1  0  0  0  0
  8  3  1  0  0  0  0
  8  7  1  0  0  0  0
  9  7  1  0  0  0  0
  9 12  1  0  0  0  0
 10  9  1  0  0  0  0
 11  9  1  0  0  0  0
 13 16  1  0  0  0  0
 13 15  1  0  0  0  0
 14 13  1  0  0  0  0
 19  6  1  0  0  0  0
 20  8  1  0  0  0  0
 21  8  1  0  0  0  0
M  CHG  1   1  -1
M  END
