5
 OpenBabel05122313063D

 44 43  0  0  0  0  0  0  0  0999 V2000
   -1.7489    1.5495   -1.1481 S   0  0  2  0  0  3  0  0  0  0  0  0
   -0.9489   -1.0773    0.0705 P   0  0  0  0  0  0  0  0  0  0  0  0
   -2.1957    0.1466   -0.2563 N   0  0  0  0  0  0  0  0  0  0  0  0
   -3.0662   -0.2339   -0.6590 H   0  0  0  0  0  0  0  0  0  0  0  0
   -0.1970    1.4432   -1.3426 O   0  0  0  0  0  1  0  0  0  0  0  0
   -1.1769   -2.2862   -1.4040 C   0  0  0  0  0  0  0  0  0  0  0  0
   -1.0419   -1.4330   -2.6816 C   0  0  0  0  0  0  0  0  0  0  0  0
   -1.8897   -0.7329   -2.8233 H   0  0  0  0  0  0  0  0  0  0  0  0
   -1.0357   -2.1120   -3.5588 H   0  0  0  0  0  0  0  0  0  0  0  0
   -0.1001   -0.8486   -2.6942 H   0  0  0  0  0  0  0  0  0  0  0  0
   -0.0397   -3.3237   -1.3999 C   0  0  0  0  0  0  0  0  0  0  0  0
   -0.1947   -4.0222   -2.2479 H   0  0  0  0  0  0  0  0  0  0  0  0
   -0.0063   -3.9321   -0.4769 H   0  0  0  0  0  0  0  0  0  0  0  0
    0.9451   -2.8407   -1.5434 H   0  0  0  0  0  0  0  0  0  0  0  0
   -2.5390   -2.9955   -1.4048 C   0  0  0  0  0  0  0  0  0  0  0  0
   -2.6685   -3.5160   -2.3765 H   0  0  0  0  0  0  0  0  0  0  0  0
   -3.3963   -2.2979   -1.3032 H   0  0  0  0  0  0  0  0  0  0  0  0
   -2.6178   -3.7617   -0.6114 H   0  0  0  0  0  0  0  0  0  0  0  0
   -1.5805   -1.7852    1.7233 C   0  0  0  0  0  0  0  0  0  0  0  0
   -0.7475   -3.0356    2.0584 C   0  0  0  0  0  0  0  0  0  0  0  0
   -0.9654   -3.8806    1.3775 H   0  0  0  0  0  0  0  0  0  0  0  0
   -1.0006   -3.3705    3.0854 H   0  0  0  0  0  0  0  0  0  0  0  0
    0.3431   -2.8389    2.0371 H   0  0  0  0  0  0  0  0  0  0  0  0
   -3.0822   -2.1171    1.7272 C   0  0  0  0  0  0  0  0  0  0  0  0
   -3.3830   -2.3606    2.7674 H   0  0  0  0  0  0  0  0  0  0  0  0
   -3.3400   -2.9885    1.1016 H   0  0  0  0  0  0  0  0  0  0  0  0
   -3.6973   -1.2509    1.4115 H   0  0  0  0  0  0  0  0  0  0  0  0
   -1.3343   -0.6858    2.7745 C   0  0  0  0  0  0  0  0  0  0  0  0
   -1.5194   -1.1070    3.7840 H   0  0  0  0  0  0  0  0  0  0  0  0
   -2.0341    0.1598    2.6343 H   0  0  0  0  0  0  0  0  0  0  0  0
   -0.3014   -0.2890    2.7492 H   0  0  0  0  0  0  0  0  0  0  0  0
   -1.9809    2.9500    0.1033 C   0  0  0  0  0  0  0  0  0  0  0  0
   -3.4638    2.9005    0.4748 C   0  0  0  0  0  0  0  0  0  0  0  0
   -4.1199    2.9568   -0.4187 H   0  0  0  0  0  0  0  0  0  0  0  0
   -3.7035    3.7756    1.1123 H   0  0  0  0  0  0  0  0  0  0  0  0
   -3.7096    1.9847    1.0473 H   0  0  0  0  0  0  0  0  0  0  0  0
   -1.6296    4.1957   -0.7207 C   0  0  0  0  0  0  0  0  0  0  0  0
   -1.8014    5.0961   -0.0968 H   0  0  0  0  0  0  0  0  0  0  0  0
   -2.2645    4.2910   -1.6251 H   0  0  0  0  0  0  0  0  0  0  0  0
   -0.5665    4.1931   -1.0310 H   0  0  0  0  0  0  0  0  0  0  0  0
   -1.0582    2.7635    1.2966 C   0  0  0  0  0  0  0  0  0  0  0  0
   -1.1740    3.6309    1.9782 H   0  0  0  0  0  0  0  0  0  0  0  0
    0.0034    2.7103    0.9891 H   0  0  0  0  0  0  0  0  0  0  0  0
   -1.3043    1.8498    1.8657 H   0  0  0  0  0  0  0  0  0  0  0  0
  1  5  1  1  0  0  0
  1  3  1  0  0  0  0
  1 32  1  0  0  0  0
  2 19  1  0  0  0  0
  3  2  1  0  0  0  0
  4  3  1  0  0  0  0
  6 11  1  0  0  0  0
  6  2  1  0  0  0  0
  7  6  1  0  0  0  0
  8  7  1  0  0  0  0
  9  7  1  0  0  0  0
 10  7  1  0  0  0  0
 11 13  1  0  0  0  0
 12 11  1  0  0  0  0
 14 11  1  0  0  0  0
 15  6  1  0  0  0  0
 15 17  1  0  0  0  0
 15 18  1  0  0  0  0
 16 15  1  0  0  0  0
 19 24  1  0  0  0  0
 19 20  1  0  0  0  0
 19 28  1  0  0  0  0
 20 22  1  0  0  0  0
 21 20  1  0  0  0  0
 23 20  1  0  0  0  0
 24 25  1  0  0  0  0
 26 24  1  0  0  0  0
 27 24  1  0  0  0  0
 28 29  1  0  0  0  0
 30 28  1  0  0  0  0
 31 28  1  0  0  0  0
 32 33  1  0  0  0  0
 32 41  1  0  0  0  0
 33 36  1  0  0  0  0
 33 35  1  0  0  0  0
 34 33  1  0  0  0  0
 37 38  1  0  0  0  0
 37 32  1  0  0  0  0
 39 37  1  0  0  0  0
 40 37  1  0  0  0  0
 41 44  1  0  0  0  0
 41 42  1  0  0  0  0
 43 41  1  0  0  0  0
M  END
