3
 OpenBabel05122313063D

 48 51  0  0  0  0  0  0  0  0999 V2000
   -1.7276    0.6327    0.0907 P   0  0  0  0  0  4  0  0  0  0  0  0
    0.9141    0.4173    0.8288 P   0  0  0  0  0  0  0  0  0  0  0  0
   -1.1689   -0.0336   -1.2334 O   0  0  0  0  0  1  0  0  0  0  0  0
   -0.6422    0.7584    1.2968 N   0  0  0  0  0  2  0  0  0  0  0  0
   -3.1193   -0.3851    0.6986 C   0  0  0  0  0  0  0  0  0  0  0  0
   -4.0168   -0.9554   -0.2258 C   0  0  0  0  0  0  0  0  0  0  0  0
   -5.0446   -1.7967    0.2243 C   0  0  0  0  0  0  0  0  0  0  0  0
   -5.1853   -2.0645    1.5972 C   0  0  0  0  0  0  0  0  0  0  0  0
   -4.2988   -1.4873    2.5209 C   0  0  0  0  0  0  0  0  0  0  0  0
   -3.2649   -0.6496    2.0738 C   0  0  0  0  0  0  0  0  0  0  0  0
   -2.4747    2.2407   -0.3409 C   0  0  0  0  0  0  0  0  0  0  0  0
   -3.5395    2.7638    0.4204 C   0  0  0  0  0  0  0  0  0  0  0  0
   -4.0635    4.0285    0.1156 C   0  0  0  0  0  0  0  0  0  0  0  0
   -3.5296    4.7711   -0.9505 C   0  0  0  0  0  0  0  0  0  0  0  0
   -2.4705    4.2477   -1.7100 C   0  0  0  0  0  0  0  0  0  0  0  0
   -1.9400    2.9838   -1.4122 C   0  0  0  0  0  0  0  0  0  0  0  0
    1.9300    1.9285    1.0661 C   0  0  0  0  0  0  0  0  0  0  0  0
    1.4170    2.9617    1.8709 C   0  0  0  0  0  0  0  0  0  0  0  0
    2.1886    4.1094    2.1084 C   0  0  0  0  0  0  0  0  0  0  0  0
    3.4688    4.2285    1.5440 C   0  0  0  0  0  0  0  0  0  0  0  0
    3.9743    3.2028    0.7279 C   0  0  0  0  0  0  0  0  0  0  0  0
    3.2034    2.0582    0.4803 C   0  0  0  0  0  0  0  0  0  0  0  0
    1.5764   -0.7060    2.1378 C   0  0  0  0  0  0  0  0  0  0  0  0
    0.6694   -1.4766    2.8903 C   0  0  0  0  0  0  0  0  0  0  0  0
    1.1386   -2.4082    3.8292 C   0  0  0  0  0  0  0  0  0  0  0  0
    2.5184   -2.5758    4.0285 C   0  0  0  0  0  0  0  0  0  0  0  0
    3.4277   -1.7957    3.2950 C   0  0  0  0  0  0  0  0  0  0  0  0
    2.9605   -0.8622    2.3571 C   0  0  0  0  0  0  0  0  0  0  0  0
   -3.8968   -0.7455   -1.2999 H   0  0  0  0  0  0  0  0  0  0  0  0
   -5.7407   -2.2484   -0.4990 H   0  0  0  0  0  0  0  0  0  0  0  0
   -5.9926   -2.7254    1.9481 H   0  0  0  0  0  0  0  0  0  0  0  0
   -4.4114   -1.6939    3.5963 H   0  0  0  0  0  0  0  0  0  0  0  0
   -2.5502   -0.1966    2.7783 H   0  0  0  0  0  0  0  0  0  0  0  0
   -3.9643    2.1778    1.2504 H   0  0  0  0  0  0  0  0  0  0  0  0
   -4.8956    4.4350    0.7108 H   0  0  0  0  0  0  0  0  0  0  0  0
   -3.9435    5.7626   -1.1910 H   0  0  0  0  0  0  0  0  0  0  0  0
   -2.0506    4.8288   -2.5454 H   0  0  0  0  0  0  0  0  0  0  0  0
   -1.0984    2.5694   -1.9910 H   0  0  0  0  0  0  0  0  0  0  0  0
    0.4050    2.8528    2.2906 H   0  0  0  0  0  0  0  0  0  0  0  0
    1.7848    4.9193    2.7355 H   0  0  0  0  0  0  0  0  0  0  0  0
    4.0712    5.1310    1.7295 H   0  0  0  0  0  0  0  0  0  0  0  0
    4.9675    3.3051    0.2643 H   0  0  0  0  0  0  0  0  0  0  0  0
    3.5722    1.2755   -0.1986 H   0  0  0  0  0  0  0  0  0  0  0  0
   -0.4086   -1.3226    2.7349 H   0  0  0  0  0  0  0  0  0  0  0  0
    0.4200   -3.0036    4.4135 H   0  0  0  0  0  0  0  0  0  0  0  0
    2.8866   -3.3064    4.7647 H   0  0  0  0  0  0  0  0  0  0  0  0
    4.5101   -1.9073    3.4616 H   0  0  0  0  0  0  0  0  0  0  0  0
    3.6786   -0.2332    1.8088 H   0  0  0  0  0  0  0  0  0  0  0  0
  1  5  1  0  0  0  0
  1  4  1  0  0  0  0
  2 17  1  0  0  0  0
  2  4  1  0  0  0  0
  2 23  1  0  0  0  0
  3  1  1  0  0  0  0
  5 10  1  0  0  0  0
  6  7  1  0  0  0  0
  6  5  2  0  0  0  0
  7  8  2  0  0  0  0
  8 31  1  0  0  0  0
  8  9  1  0  0  0  0
  9 32  1  0  0  0  0
 10  9  2  0  0  0  0
 10 33  1  0  0  0  0
 11  1  1  0  0  0  0
 11 12  1  0  0  0  0
 12 34  1  0  0  0  0
 13 12  2  0  0  0  0
 13 35  1  0  0  0  0
 14 13  1  0  0  0  0
 15 16  1  0  0  0  0
 15 14  2  0  0  0  0
 16 11  2  0  0  0  0
 17 18  1  0  0  0  0
 18 19  2  0  0  0  0
 18 39  1  0  0  0  0
 19 40  1  0  0  0  0
 20 41  1  0  0  0  0
 20 19  1  0  0  0  0
 21 20  2  0  0  0  0
 22 21  1  0  0  0  0
 22 17  2  0  0  0  0
 23 28  2  0  0  0  0
 23 24  1  0  0  0  0
 24 25  2  0  0  0  0
 25 26  1  0  0  0  0
 25 45  1  0  0  0  0
 26 46  1  0  0  0  0
 27 47  1  0  0  0  0
 27 26  2  0  0  0  0
 28 27  1  0  0  0  0
 29  6  1  0  0  0  0
 30  7  1  0  0  0  0
 36 14  1  0  0  0  0
 37 15  1  0  0  0  0
 38 16  1  0  0  0  0
 42 21  1  0  0  0  0
 43 22  1  0  0  0  0
 44 24  1  0  0  0  0
 48 28  1  0  0  0  0
M  END
