1
 OpenBabel05122313063D

 16 16  0  0  1  0  0  0  0  0999 V2000
    0.6465   -0.2926    0.6355 O   0  0  0  0  0  1  0  0  0  0  0  0
    4.1388   -1.2713    0.2793 O   0  0  0  0  0  0  0  0  0  0  0  0
    1.8303   -0.9993    0.8761 C   0  0  0  0  0  0  0  0  0  0  0  0
    2.9721   -0.4888   -0.0116 C   0  0  1  0  0  0  0  0  0  0  0  0
    3.3618    0.9796    0.2091 C   0  0  0  0  0  0  0  0  0  0  0  0
    4.8736    0.9474   -0.0465 C   0  0  0  0  0  0  0  0  0  0  0  0
    5.2456   -0.4111    0.5521 C   0  0  0  0  0  0  0  0  0  0  0  0
    1.6680   -2.0807    0.6562 H   0  0  0  0  0  0  0  0  0  0  0  0
    2.1289   -0.9000    1.9466 H   0  0  0  0  0  0  0  0  0  0  0  0
    2.6723   -0.6561   -1.0726 H   0  0  0  0  0  0  0  0  0  0  0  0
    3.1558    1.2758    1.2613 H   0  0  0  0  0  0  0  0  0  0  0  0
    2.7968    1.6589   -0.4567 H   0  0  0  0  0  0  0  0  0  0  0  0
    5.4217    1.7938    0.4126 H   0  0  0  0  0  0  0  0  0  0  0  0
    5.0796    0.9566   -1.1370 H   0  0  0  0  0  0  0  0  0  0  0  0
    6.1589   -0.8596    0.1071 H   0  0  0  0  0  0  0  0  0  0  0  0
    5.4144   -0.3258    1.6544 H   0  0  0  0  0  0  0  0  0  0  0  0
  1  3  1  0  0  0  0
  2  7  1  0  0  0  0
  3  9  1  0  0  0  0
  4 10  1  6  0  0  0
  4  5  1  0  0  0  0
  4  2  1  0  0  0  0
  4  3  1  0  0  0  0
  5 11  1  0  0  0  0
  6  5  1  0  0  0  0
  6 13  1  0  0  0  0
  6  7  1  0  0  0  0
  7 16  1  0  0  0  0
  8  3  1  0  0  0  0
 12  5  1  0  0  0  0
 14  6  1  0  0  0  0
 15  7  1  0  0  0  0
M  END
