23
 OpenBabel05122313063D

 43 45  0  0  0  0  0  0  0  0999 V2000
   -3.4574   -0.0289   -0.3124 P   0  0  0  0  0  4  0  0  0  0  0  0
   -6.0840   -0.9662   -0.6472 C   0  0  0  0  0  0  0  0  0  0  0  0
   -7.1186   -1.5670   -1.3782 C   0  0  0  0  0  0  0  0  0  0  0  0
   -6.8701   -2.0742   -2.6642 C   0  0  0  0  0  0  0  0  0  0  0  0
   -5.5859   -1.9803   -3.2236 C   0  0  0  0  0  0  0  0  0  0  0  0
   -4.5458   -1.3780   -2.5013 C   0  0  0  0  0  0  0  0  0  0  0  0
   -4.7926   -0.8712   -1.2090 C   0  0  0  0  0  0  0  0  0  0  0  0
   -4.0225   -1.7085    1.8504 C   0  0  0  0  0  0  0  0  0  0  0  0
   -4.0265   -2.0453    3.2102 C   0  0  0  0  0  0  0  0  0  0  0  0
   -3.6196   -1.1030    4.1699 C   0  0  0  0  0  0  0  0  0  0  0  0
   -3.2069    0.1767    3.7720 C   0  0  0  0  0  0  0  0  0  0  0  0
   -3.2016    0.5277    2.4143 C   0  0  0  0  0  0  0  0  0  0  0  0
   -3.6183   -0.4146    1.4526 C   0  0  0  0  0  0  0  0  0  0  0  0
   -2.4924    2.5881   -0.3368 C   0  0  0  0  0  0  0  0  0  0  0  0
   -2.6046    3.9715   -0.5381 C   0  0  0  0  0  0  0  0  0  0  0  0
   -3.8115    4.5282   -0.9888 C   0  0  0  0  0  0  0  0  0  0  0  0
   -4.9190    3.7015   -1.2403 C   0  0  0  0  0  0  0  0  0  0  0  0
   -4.8243    2.3174   -1.0409 C   0  0  0  0  0  0  0  0  0  0  0  0
   -3.6103    1.7605   -0.5857 C   0  0  0  0  0  0  0  0  0  0  0  0
   -1.8209   -0.5513   -0.8844 C   0  0  0  0  0  0  0  0  0  0  0  0
   -1.4415   -2.0059   -0.6221 C   0  0  0  0  0  0  0  0  0  0  0  0
    0.1057   -2.1662   -0.7005 C   0  0  0  0  0  0  0  0  0  0  0  0
    0.7002   -1.2000   -1.3106 O   0  5  0  0  0  0  0  0  0  0  0  0
    0.6127   -3.1659   -0.1660 O   0  0  0  0  0  0  0  0  0  0  0  0
   -6.2757   -0.5774    0.3643 H   0  0  0  0  0  0  0  0  0  0  0  0
   -8.1244   -1.6421   -0.9388 H   0  0  0  0  0  0  0  0  0  0  0  0
   -7.6833   -2.5491   -3.2334 H   0  0  0  0  0  0  0  0  0  0  0  0
   -5.3895   -2.3806   -4.2292 H   0  0  0  0  0  0  0  0  0  0  0  0
   -3.5414   -1.3062   -2.9440 H   0  0  0  0  0  0  0  0  0  0  0  0
   -4.3313   -2.4518    1.1004 H   0  0  0  0  0  0  0  0  0  0  0  0
   -4.3416   -3.0525    3.5206 H   0  0  0  0  0  0  0  0  0  0  0  0
   -3.6171   -1.3736    5.2365 H   0  0  0  0  0  0  0  0  0  0  0  0
   -2.8687    0.9096    4.5187 H   0  0  0  0  0  0  0  0  0  0  0  0
   -2.8612    1.5269    2.1100 H   0  0  0  0  0  0  0  0  0  0  0  0
   -1.5350    2.1733    0.0315 H   0  0  0  0  0  0  0  0  0  0  0  0
   -1.7312    4.6108   -0.3406 H   0  0  0  0  0  0  0  0  0  0  0  0
   -3.8899    5.6141   -1.1501 H   0  0  0  0  0  0  0  0  0  0  0  0
   -5.8639    4.1356   -1.5998 H   0  0  0  0  0  0  0  0  0  0  0  0
   -5.6903    1.6720   -1.2499 H   0  0  0  0  0  0  0  0  0  0  0  0
   -1.1264    0.0986   -0.2939 H   0  0  0  0  0  0  0  0  0  0  0  0
   -1.6983   -0.2508   -1.9441 H   0  0  0  0  0  0  0  0  0  0  0  0
   -1.9243   -2.7074   -1.3347 H   0  0  0  0  0  0  0  0  0  0  0  0
   -1.7354   -2.3276    0.3966 H   0  0  0  0  0  0  0  0  0  0  0  0
  1 13  1  0  0  0  0
  2 25  1  0  0  0  0
  3 26  1  0  0  0  0
  3  2  2  0  0  0  0
  4  3  1  0  0  0  0
  5  4  2  0  0  0  0
  5  6  1  0  0  0  0
  6  7  2  0  0  0  0
  7  2  1  0  0  0  0
  7  1  1  0  0  0  0
  8  9  1  0  0  0  0
  9 31  1  0  0  0  0
  9 10  2  0  0  0  0
 10 32  1  0  0  0  0
 11 10  1  0  0  0  0
 11 33  1  0  0  0  0
 12 11  2  0  0  0  0
 13  8  2  0  0  0  0
 13 12  1  0  0  0  0
 14 35  1  0  0  0  0
 15 36  1  0  0  0  0
 15 14  1  0  0  0  0
 16 15  2  0  0  0  0
 17 18  2  0  0  0  0
 17 16  1  0  0  0  0
 18 19  1  0  0  0  0
 19 14  2  0  0  0  0
 19  1  1  0  0  0  0
 20 21  1  0  0  0  0
 20  1  1  0  0  0  0
 20 40  1  0  0  0  0
 21 43  1  0  0  0  0
 22 21  1  0  0  0  0
 22 24  2  0  0  0  0
 23 22  1  0  0  0  0
 27  4  1  0  0  0  0
 28  5  1  0  0  0  0
 29  6  1  0  0  0  0
 30  8  1  0  0  0  0
 34 12  1  0  0  0  0
 37 16  1  0  0  0  0
 38 17  1  0  0  0  0
 39 18  1  0  0  0  0
 41 20  1  0  0  0  0
 42 21  1  0  0  0  0
M  CHG  1  23  -1
M  END
