1
 OpenBabel05122313063D

  5  4  0  0  0  0  0  0  0  0999 V2000
   -0.3408    0.0844    1.4251 O   0  0  0  0  0  0  0  0  0  0  0  0
   -0.8000    0.1329    2.8787 B   0  0  0  0  0  0  0  0  0  0  0  0
   -0.7754    1.4659    3.2748 F   0  0  0  0  0  0  0  0  0  0  0  0
    0.0590   -0.6748    3.6121 F   0  0  0  0  0  0  0  0  0  0  0  0
   -2.1196   -0.3799    2.8622 F   0  0  0  0  0  0  0  0  0  0  0  0
  1  2  1  0  0  0  0
  2  3  1  0  0  0  0
  2  4  1  0  0  0  0
  5  2  1  0  0  0  0
M  END
