1
 OpenBabel05122313063D

 18 18  0  0  0  0  0  0  0  0999 V2000
    2.0829    0.3116   -1.0866 O   0  5  0  0  0  0  0  0  0  0  0  0
    1.8206   -1.1473    0.5686 O   0  0  0  0  0  0  0  0  0  0  0  0
    3.7788   -2.4352    1.5049 O   0  0  0  0  0  0  0  0  0  0  0  0
    2.8399   -2.0693    1.3337 H   0  0  0  0  0  0  0  0  0  0  0  0
    2.5625   -0.6177   -0.3264 C   0  0  0  0  0  0  0  0  0  0  0  0
    3.9739   -1.0244   -0.4489 C   0  0  0  0  0  0  0  0  0  0  0  0
    4.5193   -1.9341    0.5095 C   0  0  0  0  0  0  0  0  0  0  0  0
    5.8823   -2.2985    0.4098 C   0  0  0  0  0  0  0  0  0  0  0  0
    6.2802   -2.9979    1.1603 H   0  0  0  0  0  0  0  0  0  0  0  0
    6.7002   -1.7928   -0.6081 C   0  0  0  0  0  0  0  0  0  0  0  0
    6.1478   -0.8910   -1.5549 C   0  0  0  0  0  0  0  0  0  0  0  0
    6.7841   -0.4893   -2.3584 H   0  0  0  0  0  0  0  0  0  0  0  0
    4.8094   -0.5163   -1.4680 C   0  0  0  0  0  0  0  0  0  0  0  0
    4.3670    0.1836   -2.1921 H   0  0  0  0  0  0  0  0  0  0  0  0
    8.1493   -2.1974   -0.7083 C   0  0  0  0  0  0  0  0  0  0  0  0
    8.4445   -2.8804    0.1110 H   0  0  0  0  0  0  0  0  0  0  0  0
    8.8155   -1.3100   -0.6739 H   0  0  0  0  0  0  0  0  0  0  0  0
    8.3536   -2.7103   -1.6718 H   0  0  0  0  0  0  0  0  0  0  0  0
  1  5  1  0  0  0  0
  4  3  1  0  0  0  0
  5  2  2  0  0  0  0
  6  5  1  0  0  0  0
  6  7  1  0  0  0  0
  7  3  1  0  0  0  0
  8  7  2  0  0  0  0
  8  9  1  0  0  0  0
 10  8  1  0  0  0  0
 11 13  1  0  0  0  0
 11 10  2  0  0  0  0
 12 11  1  0  0  0  0
 13  6  2  0  0  0  0
 14 13  1  0  0  0  0
 15 17  1  0  0  0  0
 15 10  1  0  0  0  0
 15 16  1  0  0  0  0
 18 15  1  0  0  0  0
M  CHG  1   1  -1
M  END
