12
 OpenBabel05122313063D

 14 13  0  0  0  0  0  0  0  0999 V2000
   -1.1781    1.7385   -0.3821 C   0  0  0  0  0  0  0  0  0  0  0  0
   -0.8223    3.0911    0.2003 C   0  0  0  0  0  0  0  0  0  0  0  0
    0.4504    3.5565    0.2498 C   0  0  0  0  0  0  0  0  0  0  0  0
    0.6517    4.5197    0.7479 H   0  0  0  0  0  0  0  0  0  0  0  0
    1.6550    2.8081   -0.2162 C   0  0  0  0  0  0  0  0  0  0  0  0
   -1.9912    3.8897    0.7088 C   0  0  0  0  0  0  0  0  0  0  0  0
   -1.6772    4.8815    1.0856 H   0  0  0  0  0  0  0  0  0  0  0  0
   -2.5166    3.3545    1.5295 H   0  0  0  0  0  0  0  0  0  0  0  0
   -2.7333    4.0213   -0.1048 H   0  0  0  0  0  0  0  0  0  0  0  0
    2.1841    1.4582   -1.4922 H   0  0  0  0  0  0  0  0  0  0  0  0
   -2.2450    1.6997   -1.0772 O   0  5  0  0  0  0  0  0  0  0  0  0
   -0.4375    0.7425   -0.0904 O   0  0  0  0  0  0  0  0  0  0  0  0
    1.5626    2.3293   -1.4465 O   0  0  0  0  0  0  0  0  0  0  0  0
    2.6350    2.6698    0.5218 O   0  0  0  0  0  0  0  0  0  0  0  0
  1 12  2  0  0  0  0
  1  2  1  0  0  0  0
  2  3  2  0  0  0  0
  2  6  1  0  0  0  0
  3  4  1  0  0  0  0
  5  3  1  0  0  0  0
  5 14  2  0  0  0  0
  6  7  1  0  0  0  0
  6  8  1  0  0  0  0
  9  6  1  0  0  0  0
 10 13  1  0  0  0  0
 11  1  1  0  0  0  0
 13  5  1  0  0  0  0
M  CHG  1  11  -1
M  END
