3
 OpenBabel05122313063D

 27 28  0  0  0  0  0  0  0  0999 V2000
    1.2326    2.0965    0.4946 S   0  0  0  0  0  0  0  0  0  0  0  0
   -3.2187    2.1846    0.0280 O   0  0  0  0  0  0  0  0  0  0  0  0
   -0.5358   -0.2215    0.1599 O   0  5  0  0  0  0  0  0  0  0  0  0
   -2.5897    0.9665    0.0037 C   0  0  0  0  0  0  0  0  0  0  0  0
   -1.1792    0.9100    0.1437 C   0  0  0  0  0  0  0  0  0  0  0  0
   -0.4685    2.1605    0.3131 C   0  0  0  0  0  0  0  0  0  0  0  0
   -1.2058    3.3740    0.3428 C   0  0  0  0  0  0  0  0  0  0  0  0
   -0.6881    4.3345    0.4710 H   0  0  0  0  0  0  0  0  0  0  0  0
   -2.5744    3.3534    0.1905 C   0  0  0  0  0  0  0  0  0  0  0  0
   -3.4881    4.5338    0.1667 C   0  0  0  0  0  0  0  0  0  0  0  0
   -4.0242    4.5967   -0.8032 H   0  0  0  0  0  0  0  0  0  0  0  0
   -2.9184    5.4683    0.3167 H   0  0  0  0  0  0  0  0  0  0  0  0
   -4.2583    4.4538    0.9619 H   0  0  0  0  0  0  0  0  0  0  0  0
   -3.5102   -0.1511   -0.1606 C   0  0  0  0  0  0  0  0  0  0  0  0
   -3.0525   -1.4784   -0.3700 C   0  0  0  0  0  0  0  0  0  0  0  0
   -1.9724   -1.6608   -0.4202 H   0  0  0  0  0  0  0  0  0  0  0  0
   -3.9651   -2.5274   -0.5281 C   0  0  0  0  0  0  0  0  0  0  0  0
   -3.5820   -3.5464   -0.6977 H   0  0  0  0  0  0  0  0  0  0  0  0
   -5.3570   -2.3162   -0.4850 C   0  0  0  0  0  0  0  0  0  0  0  0
   -5.8086   -0.9926   -0.2820 C   0  0  0  0  0  0  0  0  0  0  0  0
   -6.8915   -0.7913   -0.2475 H   0  0  0  0  0  0  0  0  0  0  0  0
   -4.9146    0.0661   -0.1251 C   0  0  0  0  0  0  0  0  0  0  0  0
   -5.2972    1.0840    0.0293 H   0  0  0  0  0  0  0  0  0  0  0  0
   -6.3359   -3.4503   -0.6424 C   0  0  0  0  0  0  0  0  0  0  0  0
   -5.8258   -4.3985   -0.9001 H   0  0  0  0  0  0  0  0  0  0  0  0
   -7.0807   -3.2354   -1.4368 H   0  0  0  0  0  0  0  0  0  0  0  0
   -6.9097   -3.6199    0.2938 H   0  0  0  0  0  0  0  0  0  0  0  0
  2  9  1  0  0  0  0
  4  2  1  0  0  0  0
  4  5  2  0  0  0  0
  5  3  1  0  0  0  0
  5  6  1  0  0  0  0
  6  7  1  0  0  0  0
  6  1  2  0  0  0  0
  7  8  1  0  0  0  0
  9  7  2  0  0  0  0
 10  9  1  0  0  0  0
 10 12  1  0  0  0  0
 10 13  1  0  0  0  0
 11 10  1  0  0  0  0
 14 22  1  0  0  0  0
 14  4  1  0  0  0  0
 15 14  2  0  0  0  0
 16 15  1  0  0  0  0
 17 19  2  0  0  0  0
 17 15  1  0  0  0  0
 18 17  1  0  0  0  0
 19 20  1  0  0  0  0
 20 21  1  0  0  0  0
 20 22  2  0  0  0  0
 22 23  1  0  0  0  0
 24 19  1  0  0  0  0
 24 27  1  0  0  0  0
 25 24  1  0  0  0  0
 26 24  1  0  0  0  0
M  CHG  1   3  -1
M  END
