15
 OpenBabel05122313063D

 15 15  0  0  0  0  0  0  0  0999 V2000
   -1.8295    1.2094   -1.0749 N   0  0  0  0  0  0  0  0  0  0  0  0
   -2.0697    1.6991    0.1812 C   0  0  0  0  0  3  0  0  0  0  0  0
   -1.2363    1.5742    0.8896 H   0  0  0  0  0  0  0  0  0  0  0  0
   -3.2854    2.3091    0.4762 C   0  0  0  0  0  0  0  0  0  0  0  0
   -3.4354    2.6875    1.4979 H   0  0  0  0  0  0  0  0  0  0  0  0
   -4.3034    2.4231   -0.4887 C   0  0  0  0  0  0  0  0  0  0  0  0
   -5.6391    3.0327   -0.1685 C   0  0  0  0  0  0  0  0  0  0  0  0
   -6.0549    3.5844   -1.0344 H   0  0  0  0  0  0  0  0  0  0  0  0
   -5.5765    3.7248    0.6930 H   0  0  0  0  0  0  0  0  0  0  0  0
   -6.3726    2.2410    0.0969 H   0  0  0  0  0  0  0  0  0  0  0  0
   -4.0182    1.8969   -1.7675 C   0  0  0  0  0  0  0  0  0  0  0  0
   -4.7645    1.9445   -2.5741 H   0  0  0  0  0  0  0  0  0  0  0  0
   -2.7955    1.2969   -2.0387 C   0  0  0  0  0  0  0  0  0  0  0  0
   -2.5086    0.8516   -2.9997 H   0  0  0  0  0  0  0  0  0  0  0  0
   -0.6965    0.6213   -1.3637 O   0  0  0  0  0  1  0  0  0  0  0  0
  1  2  1  0  0  0  0
  2  4  1  0  0  0  0
  2  3  1  0  0  0  0
  4  5  1  0  0  0  0
  6  7  1  0  0  0  0
  6  4  2  0  0  0  0
  7 10  1  0  0  0  0
  7  9  1  0  0  0  0
  8  7  1  0  0  0  0
 11  6  1  0  0  0  0
 12 11  1  0  0  0  0
 13 11  2  0  0  0  0
 13  1  1  0  0  0  0
 14 13  1  0  0  0  0
 15  1  1  0  0  0  0
M  END
