6
 OpenBabel05122313063D

 26 25  0  0  0  0  0  0  0  0999 V2000
   -1.3605    3.6709    0.6759 C   0  0  0  0  0  0  0  0  0  0  0  0
   -0.6544    4.0193   -0.1069 H   0  0  0  0  0  0  0  0  0  0  0  0
   -1.9976    4.5117    1.0035 H   0  0  0  0  0  0  0  0  0  0  0  0
   -0.7274    3.3100    1.5134 H   0  0  0  0  0  0  0  0  0  0  0  0
   -2.1530    2.5195    0.1327 C   0  0  0  0  0  0  0  0  0  0  0  0
   -1.4879    1.4651   -0.2119 O   0  5  0  0  0  0  0  0  0  0  0  0
   -3.5508    2.5747    0.0086 C   0  0  0  0  0  0  0  0  0  0  0  0
   -4.0535    3.4898    0.3450 H   0  0  0  0  0  0  0  0  0  0  0  0
   -4.3819    1.5259   -0.4680 C   0  0  0  0  0  0  0  0  0  0  0  0
   -3.8806    0.4029   -0.9809 N   0  0  0  0  0  4  0  0  0  0  0  0
   -2.8489    0.3264   -1.0083 H   0  0  0  0  0  0  0  0  0  0  0  0
   -5.8762    1.6878   -0.3939 C   0  0  0  0  0  0  0  0  0  0  0  0
   -6.3187    0.8970    0.2460 H   0  0  0  0  0  0  0  0  0  0  0  0
   -6.1408    2.6731    0.0270 H   0  0  0  0  0  0  0  0  0  0  0  0
   -6.3401    1.5984   -1.3977 H   0  0  0  0  0  0  0  0  0  0  0  0
   -4.6008   -0.7950   -1.3828 C   0  0  0  0  0  0  0  0  0  0  0  0
   -5.6574   -0.5417   -1.5920 H   0  0  0  0  0  0  0  0  0  0  0  0
   -4.1369   -1.1508   -2.3252 H   0  0  0  0  0  0  0  0  0  0  0  0
   -4.5120   -1.9210   -0.3289 C   0  0  0  0  0  0  0  0  0  0  0  0
   -3.4424   -2.2067   -0.2331 H   0  0  0  0  0  0  0  0  0  0  0  0
   -5.0627   -2.7962   -0.7334 H   0  0  0  0  0  0  0  0  0  0  0  0
   -5.0480   -1.5319    1.0201 C   0  0  0  0  0  0  0  0  0  0  0  0
   -4.4041   -0.8541    1.6098 H   0  0  0  0  0  0  0  0  0  0  0  0
   -6.2143   -1.9551    1.5403 C   0  0  0  0  0  0  0  0  0  0  0  0
   -6.8706   -2.6530    0.9920 H   0  0  0  0  0  0  0  0  0  0  0  0
   -6.5482   -1.6380    2.5408 H   0  0  0  0  0  0  0  0  0  0  0  0
  1  3  1  0  0  0  0
  1  4  1  0  0  0  0
  2  1  1  0  0  0  0
  5  1  1  0  0  0  0
  6  5  1  0  0  0  0
  7  5  2  0  0  0  0
  7  8  1  0  0  0  0
  9 12  1  0  0  0  0
  9  7  1  0  0  0  0
 10  9  2  0  0  0  0
 11 10  1  0  0  0  0
 12 14  1  0  0  0  0
 12 13  1  0  0  0  0
 15 12  1  0  0  0  0
 16 10  1  0  0  0  0
 16 19  1  0  0  0  0
 17 16  1  0  0  0  0
 18 16  1  0  0  0  0
 19 20  1  0  0  0  0
 19 22  1  0  0  0  0
 21 19  1  0  0  0  0
 22 24  2  0  0  0  0
 22 23  1  0  0  0  0
 24 26  1  0  0  0  0
 25 24  1  0  0  0  0
M  CHG  1   6  -1
M  END
