6
 OpenBabel05122313063D

 23 22  0  0  0  0  0  0  0  0999 V2000
   -1.2664    3.5395    0.4749 C   0  0  0  0  0  0  0  0  0  0  0  0
   -0.6723    3.3030    1.3828 H   0  0  0  0  0  0  0  0  0  0  0  0
   -1.8570    4.4619    0.6171 H   0  0  0  0  0  0  0  0  0  0  0  0
   -0.5169    3.6729   -0.3337 H   0  0  0  0  0  0  0  0  0  0  0  0
   -2.1114    2.3525    0.1328 C   0  0  0  0  0  0  0  0  0  0  0  0
   -1.4991    1.2360   -0.0617 O   0  5  0  0  0  0  0  0  0  0  0  0
   -3.5147    2.4115    0.0292 C   0  0  0  0  0  0  0  0  0  0  0  0
   -4.0099    3.3668    0.2440 H   0  0  0  0  0  0  0  0  0  0  0  0
   -4.3432    1.2990   -0.2727 C   0  0  0  0  0  0  0  0  0  0  0  0
   -3.8359    0.1289   -0.6639 N   0  0  0  0  0  4  0  0  0  0  0  0
   -5.8359    1.4235   -0.1550 C   0  0  0  0  0  0  0  0  0  0  0  0
   -6.3350    1.1744   -1.1142 H   0  0  0  0  0  0  0  0  0  0  0  0
   -6.1269    2.4463    0.1404 H   0  0  0  0  0  0  0  0  0  0  0  0
   -6.2183    0.7079    0.6021 H   0  0  0  0  0  0  0  0  0  0  0  0
   -4.5492   -1.1313   -0.8380 C   0  0  0  0  0  0  0  0  0  0  0  0
   -3.8818   -1.7573   -1.4673 H   0  0  0  0  0  0  0  0  0  0  0  0
   -5.4966   -0.9756   -1.3941 H   0  0  0  0  0  0  0  0  0  0  0  0
   -4.7983   -1.8245    0.4794 C   0  0  0  0  0  0  0  0  0  0  0  0
   -3.8936   -1.9659    1.0984 H   0  0  0  0  0  0  0  0  0  0  0  0
   -6.0030   -2.2492    0.8954 C   0  0  0  0  0  0  0  0  0  0  0  0
   -6.9094   -2.1097    0.2808 H   0  0  0  0  0  0  0  0  0  0  0  0
   -6.1268   -2.7690    1.8580 H   0  0  0  0  0  0  0  0  0  0  0  0
   -2.8040    0.0713   -0.7342 H   0  0  0  0  0  0  0  0  0  0  0  0
  1  3  1  0  0  0  0
  1  2  1  0  0  0  0
  4  1  1  0  0  0  0
  5  1  1  0  0  0  0
  6  5  1  0  0  0  0
  7  5  2  0  0  0  0
  7  8  1  0  0  0  0
  9 11  1  0  0  0  0
  9  7  1  0  0  0  0
 10  9  2  0  0  0  0
 11 13  1  0  0  0  0
 11 14  1  0  0  0  0
 12 11  1  0  0  0  0
 15 10  1  0  0  0  0
 15 18  1  0  0  0  0
 16 15  1  0  0  0  0
 17 15  1  0  0  0  0
 18 20  2  0  0  0  0
 18 19  1  0  0  0  0
 20 22  1  0  0  0  0
 21 20  1  0  0  0  0
 23 10  1  0  0  0  0
M  CHG  1   6  -1
M  END
