1
 OpenBabel05122313063D

 19 18  0  0  0  0  0  0  0  0999 V2000
   -2.0658    0.4981   -0.1543 O   0  5  0  0  0  0  0  0  0  0  0  0
   -4.2195   -0.4130   -0.4616 C   0  0  0  0  0  0  0  0  0  0  0  0
   -4.4842    0.5455    0.0248 H   0  0  0  0  0  0  0  0  0  0  0  0
   -4.4137   -0.2677   -1.5491 H   0  0  0  0  0  0  0  0  0  0  0  0
   -2.7182   -0.6191   -0.3287 C   0  0  0  0  0  0  0  0  0  0  0  0
   -7.2626   -0.3374    0.4477 C   0  0  0  0  0  0  0  0  0  0  0  0
   -6.8144    0.6290    0.1293 H   0  0  0  0  0  0  0  0  0  0  0  0
   -7.0856   -0.4017    1.5449 H   0  0  0  0  0  0  0  0  0  0  0  0
   -5.0377   -1.5978    0.0594 C   0  0  0  0  0  0  0  0  0  0  0  0
   -4.8846   -1.6915    1.1575 H   0  0  0  0  0  0  0  0  0  0  0  0
   -4.6189   -2.5237   -0.3850 H   0  0  0  0  0  0  0  0  0  0  0  0
   -6.5375   -1.4992   -0.2419 C   0  0  0  0  0  0  0  0  0  0  0  0
   -6.6871   -1.4225   -1.3434 H   0  0  0  0  0  0  0  0  0  0  0  0
   -7.0232   -2.4535    0.0592 H   0  0  0  0  0  0  0  0  0  0  0  0
   -8.7656   -0.3142    0.1674 C   0  0  0  0  0  0  0  0  0  0  0  0
   -9.2665    0.5321    0.6789 H   0  0  0  0  0  0  0  0  0  0  0  0
   -9.2547   -1.2500    0.5105 H   0  0  0  0  0  0  0  0  0  0  0  0
   -8.9710   -0.2162   -0.9193 H   0  0  0  0  0  0  0  0  0  0  0  0
   -2.1994   -1.7550   -0.4052 O   0  0  0  0  0  0  0  0  0  0  0  0
  2  5  1  0  0  0  0
  2  3  1  0  0  0  0
  2  9  1  0  0  0  0
  4  2  1  0  0  0  0
  5  1  1  0  0  0  0
  6  8  1  0  0  0  0
  7  6  1  0  0  0  0
  9 10  1  0  0  0  0
 11  9  1  0  0  0  0
 12 14  1  0  0  0  0
 12  9  1  0  0  0  0
 12  6  1  0  0  0  0
 13 12  1  0  0  0  0
 15  6  1  0  0  0  0
 15 17  1  0  0  0  0
 15 16  1  0  0  0  0
 18 15  1  0  0  0  0
 19  5  2  0  0  0  0
M  CHG  1   1  -1
M  END
