2
 OpenBabel05122313063D

 17 18  0  0  0  0  0  0  0  0999 V2000
    2.8111    1.6531    1.6262 O   0  5  0  0  0  0  0  0  0  0  0  0
    1.6658    0.1769    0.3316 O   0  0  0  0  0  0  0  0  0  0  0  0
    5.1904   -3.4594   -0.6739 O   0  0  0  0  0  0  0  0  0  0  0  0
    7.1846   -2.7854    0.2902 O   0  0  0  0  0  0  0  0  0  0  0  0
    2.7193    0.6044    0.9599 C   0  0  0  0  0  0  0  0  0  0  0  0
    3.9344   -0.2855    0.8110 C   0  0  0  0  0  0  0  0  0  0  0  0
    3.8415   -1.5053    0.0891 C   0  0  0  0  0  0  0  0  0  0  0  0
    2.8830   -1.8105   -0.3503 H   0  0  0  0  0  0  0  0  0  0  0  0
    4.9957   -2.2684   -0.0092 C   0  0  0  0  0  0  0  0  0  0  0  0
    6.2103   -1.8611    0.5719 C   0  0  0  0  0  0  0  0  0  0  0  0
    6.3214   -0.6667    1.2787 C   0  0  0  0  0  0  0  0  0  0  0  0
    7.2764   -0.3582    1.7261 H   0  0  0  0  0  0  0  0  0  0  0  0
    5.1527    0.1151    1.3905 C   0  0  0  0  0  0  0  0  0  0  0  0
    5.1577    1.0660    1.9422 H   0  0  0  0  0  0  0  0  0  0  0  0
    6.4935   -3.8978   -0.2904 C   0  0  0  0  0  0  0  0  0  0  0  0
    6.4096   -4.7179    0.4667 H   0  0  0  0  0  0  0  0  0  0  0  0
    7.0480   -4.2540   -1.1845 H   0  0  0  0  0  0  0  0  0  0  0  0
  2  5  2  0  0  0  0
  3 15  1  0  0  0  0
  3  9  1  0  0  0  0
  4 10  1  0  0  0  0
  5  1  1  0  0  0  0
  6  5  1  0  0  0  0
  6 13  1  0  0  0  0
  7  6  2  0  0  0  0
  8  7  1  0  0  0  0
  9  7  1  0  0  0  0
  9 10  2  0  0  0  0
 10 11  1  0  0  0  0
 11 13  2  0  0  0  0
 11 12  1  0  0  0  0
 13 14  1  0  0  0  0
 15  4  1  0  0  0  0
 15 16  1  0  0  0  0
 17 15  1  0  0  0  0
M  CHG  1   1  -1
M  END
