1
 OpenBabel05122313063D

 36 36  0  0  0  0  0  0  0  0999 V2000
    0.5086    1.3814    0.0025 O   0  5  0  0  0  0  0  0  0  0  0  0
    3.2337    2.4173    0.0011 C   0  0  0  0  0  0  0  0  0  0  0  0
    2.6649    3.0917    1.2733 C   0  0  0  0  0  0  0  0  0  0  0  0
    1.5656    3.0024    1.3433 H   0  0  0  0  0  0  0  0  0  0  0  0
    2.9214    4.1714    1.2760 H   0  0  0  0  0  0  0  0  0  0  0  0
    3.1044    2.6352    2.1837 H   0  0  0  0  0  0  0  0  0  0  0  0
    2.6639    3.0911   -1.2709 C   0  0  0  0  0  0  0  0  0  0  0  0
    1.5644    3.0020   -1.3400 H   0  0  0  0  0  0  0  0  0  0  0  0
    3.1025    2.6343   -2.1815 H   0  0  0  0  0  0  0  0  0  0  0  0
    2.9204    4.1709   -1.2743 H   0  0  0  0  0  0  0  0  0  0  0  0
    4.7580    2.6376    0.0004 C   0  0  0  0  0  0  0  0  0  0  0  0
    4.9711    3.7253    0.0002 H   0  0  0  0  0  0  0  0  0  0  0  0
    5.2418    2.2044   -0.8986 H   0  0  0  0  0  0  0  0  0  0  0  0
    5.2426    2.2046    0.8990 H   0  0  0  0  0  0  0  0  0  0  0  0
    4.7389   -2.4795    0.0010 C   0  0  0  0  0  0  0  0  0  0  0  0
    5.6055   -2.2624    1.2625 C   0  0  0  0  0  0  0  0  0  0  0  0
    6.4551   -2.9766    1.2798 H   0  0  0  0  0  0  0  0  0  0  0  0
    5.0073   -2.4142    2.1836 H   0  0  0  0  0  0  0  0  0  0  0  0
    6.0261   -1.2379    1.3002 H   0  0  0  0  0  0  0  0  0  0  0  0
    5.6042   -2.2628   -1.2614 C   0  0  0  0  0  0  0  0  0  0  0  0
    6.4538   -2.9770   -1.2794 H   0  0  0  0  0  0  0  0  0  0  0  0
    6.0248   -1.2383   -1.2998 H   0  0  0  0  0  0  0  0  0  0  0  0
    5.0051   -2.4148   -2.1819 H   0  0  0  0  0  0  0  0  0  0  0  0
    4.2400   -3.9347    0.0015 C   0  0  0  0  0  0  0  0  0  0  0  0
    5.1039   -4.6296    0.0012 H   0  0  0  0  0  0  0  0  0  0  0  0
    3.6294   -4.1607   -0.8960 H   0  0  0  0  0  0  0  0  0  0  0  0
    3.6302   -4.1604    0.8997 H   0  0  0  0  0  0  0  0  0  0  0  0
    1.5163    0.4829    0.0021 C   0  0  0  0  0  0  0  0  0  0  0  0
    2.8735    0.9204    0.0015 C   0  0  0  0  0  0  0  0  0  0  0  0
    3.8554   -0.0858    0.0011 C   0  0  0  0  0  0  0  0  0  0  0  0
    4.9079    0.2264    0.0006 H   0  0  0  0  0  0  0  0  0  0  0  0
    3.5769   -1.4707    0.0014 C   0  0  0  0  0  0  0  0  0  0  0  0
    2.2244   -1.8561    0.0021 C   0  0  0  0  0  0  0  0  0  0  0  0
    1.9412   -2.9175    0.0024 H   0  0  0  0  0  0  0  0  0  0  0  0
    1.2107   -0.8910    0.0025 C   0  0  0  0  0  0  0  0  0  0  0  0
    0.1518   -1.1838    0.0031 H   0  0  0  0  0  0  0  0  0  0  0  0
  2 29  1  0  0  0  0
  2  3  1  0  0  0  0
  3  5  1  0  0  0  0
  3  4  1  0  0  0  0
  3  6  1  0  0  0  0
  7  2  1  0  0  0  0
  8  7  1  0  0  0  0
  9  7  1  0  0  0  0
 10  7  1  0  0  0  0
 11  2  1  0  0  0  0
 11 14  1  0  0  0  0
 12 11  1  0  0  0  0
 13 11  1  0  0  0  0
 15 32  1  0  0  0  0
 15 24  1  0  0  0  0
 15 16  1  0  0  0  0
 16 17  1  0  0  0  0
 16 19  1  0  0  0  0
 16 18  1  0  0  0  0
 20 15  1  0  0  0  0
 21 20  1  0  0  0  0
 22 20  1  0  0  0  0
 23 20  1  0  0  0  0
 24 27  1  0  0  0  0
 25 24  1  0  0  0  0
 26 24  1  0  0  0  0
 28  1  1  0  0  0  0
 28 35  1  0  0  0  0
 29 28  2  0  0  0  0
 30 32  2  0  0  0  0
 30 29  1  0  0  0  0
 31 30  1  0  0  0  0
 32 33  1  0  0  0  0
 33 34  1  0  0  0  0
 33 35  2  0  0  0  0
 35 36  1  0  0  0  0
M  CHG  1   1  -1
M  END
