1
 OpenBabel05122313063D

 17 17  0  0  0  0  0  0  0  0999 V2000
   -1.1303   -0.6929   -0.3431 O   0  5  0  0  0  0  0  0  0  0  0  0
   -2.4372   -0.6898   -0.2292 C   0  0  0  0  0  0  0  0  0  0  0  0
   -3.3007    0.1479    0.4481 C   0  0  0  0  0  0  0  0  0  0  0  0
   -3.0158    1.0202    1.0467 H   0  0  0  0  0  0  0  0  0  0  0  0
   -4.6841   -0.3074    0.2528 C   0  0  0  0  0  0  0  0  0  0  0  0
   -4.7059   -1.4304   -0.5369 C   0  0  0  0  0  0  0  0  0  0  0  0
   -3.2813   -1.7633   -0.9114 C   0  0  0  0  0  0  0  0  0  0  0  0
   -2.9716   -2.7767   -0.5684 H   0  0  0  0  0  0  0  0  0  0  0  0
   -3.1183   -1.7532   -2.0134 H   0  0  0  0  0  0  0  0  0  0  0  0
   -5.8512    0.4070    0.8647 C   0  0  0  0  0  0  0  0  0  0  0  0
   -6.8180   -0.0741    0.6204 H   0  0  0  0  0  0  0  0  0  0  0  0
   -5.9009    1.4627    0.5191 H   0  0  0  0  0  0  0  0  0  0  0  0
   -5.7622    0.4463    1.9723 H   0  0  0  0  0  0  0  0  0  0  0  0
   -5.8743   -2.2386   -1.0012 C   0  0  0  0  0  0  0  0  0  0  0  0
   -6.8340   -1.8360   -0.6207 H   0  0  0  0  0  0  0  0  0  0  0  0
   -5.8084   -3.3001   -0.6698 H   0  0  0  0  0  0  0  0  0  0  0  0
   -5.9482   -2.2694   -2.1124 H   0  0  0  0  0  0  0  0  0  0  0  0
  1  2  1  0  0  0  0
  2  3  2  0  0  0  0
  3  4  1  0  0  0  0
  5  3  1  0  0  0  0
  5 10  1  0  0  0  0
  6  5  2  0  0  0  0
  7  8  1  0  0  0  0
  7  6  1  0  0  0  0
  7  2  1  0  0  0  0
  9  7  1  0  0  0  0
 10 13  1  0  0  0  0
 11 10  1  0  0  0  0
 12 10  1  0  0  0  0
 14 16  1  0  0  0  0
 14 15  1  0  0  0  0
 14  6  1  0  0  0  0
 17 14  1  0  0  0  0
M  CHG  1   1  -1
M  END
