1
 OpenBabel05122313063D

 14 14  0  0  0  0  0  0  0  0999 V2000
    1.2892    0.7751    0.6265 O   0  5  0  0  0  0  0  0  0  0  0  0
    2.2861   -0.9326   -1.2302 O   0  0  0  0  0  0  0  0  0  0  0  0
    4.3101   -1.6468   -1.0002 O   0  0  0  0  0  0  0  0  0  0  0  0
    3.3818   -0.9637   -0.5984 N   0  0  0  0  0  0  0  0  0  0  0  0
    2.8386    1.5022    2.2212 C   0  0  0  0  0  0  0  0  0  0  0  0
    4.0979    1.4580    2.8115 C   0  0  0  0  0  0  0  0  0  0  0  0
    5.1012    0.6024    2.3038 C   0  0  0  0  0  0  0  0  0  0  0  0
    4.8258   -0.1920    1.1963 C   0  0  0  0  0  0  0  0  0  0  0  0
    3.5532   -0.1499    0.5851 C   0  0  0  0  0  0  0  0  0  0  0  0
    2.5162    0.6953    1.0964 C   0  0  0  0  0  0  0  0  0  0  0  0
    2.0387    2.1491    2.6083 H   0  0  0  0  0  0  0  0  0  0  0  0
    4.3078    2.0920    3.6862 H   0  0  0  0  0  0  0  0  0  0  0  0
    6.0938    0.5642    2.7742 H   0  0  0  0  0  0  0  0  0  0  0  0
    5.5783   -0.8618    0.7610 H   0  0  0  0  0  0  0  0  0  0  0  0
  1 10  1  0  0  0  0
  2  4  2  0  0  0  0
  3  4  2  0  0  0  0
  4  9  1  0  0  0  0
  5 11  1  0  0  0  0
  5  6  1  0  0  0  0
  6 12  1  0  0  0  0
  7 13  1  0  0  0  0
  7  6  2  0  0  0  0
  8  7  1  0  0  0  0
  9 10  1  0  0  0  0
  9  8  2  0  0  0  0
 10  5  2  0  0  0  0
 14  8  1  0  0  0  0
M  CHG  1   1  -1
M  END
