1
 OpenBabel05122313063D

 35 37  0  0  0  0  0  0  0  0999 V2000
   -0.4438    0.0474    1.0509 O   0  0  0  0  0  1  0  0  0  0  0  0
    0.5414   -0.0757   -0.0161 C   0  0  0  0  0  0  0  0  0  0  0  0
    0.6309    1.2598   -0.7628 C   0  0  0  0  0  0  0  0  0  0  0  0
    0.6944    2.4511   -0.0099 C   0  0  0  0  0  0  0  0  0  0  0  0
    0.8400    3.6883   -0.6480 C   0  0  0  0  0  0  0  0  0  0  0  0
    0.9414    3.7523   -2.0477 C   0  0  0  0  0  0  0  0  0  0  0  0
    0.8958    2.5709   -2.8012 C   0  0  0  0  0  0  0  0  0  0  0  0
    0.7371    1.3296   -2.1633 C   0  0  0  0  0  0  0  0  0  0  0  0
    0.0832   -1.2449   -0.9031 C   0  0  0  0  0  0  0  0  0  0  0  0
   -1.1310   -1.1322   -1.6133 C   0  0  0  0  0  0  0  0  0  0  0  0
   -1.5958   -2.1899   -2.4040 C   0  0  0  0  0  0  0  0  0  0  0  0
   -0.8524   -3.3781   -2.4997 C   0  0  0  0  0  0  0  0  0  0  0  0
    0.3562   -3.4971   -1.7996 C   0  0  0  0  0  0  0  0  0  0  0  0
    0.8211   -2.4383   -1.0024 C   0  0  0  0  0  0  0  0  0  0  0  0
    1.8732   -0.3718    0.6911 C   0  0  0  0  0  0  0  0  0  0  0  0
    1.8858   -1.0180    1.9413 C   0  0  0  0  0  0  0  0  0  0  0  0
    3.1028   -1.3378    2.5614 C   0  0  0  0  0  0  0  0  0  0  0  0
    4.3196   -1.0228    1.9368 C   0  0  0  0  0  0  0  0  0  0  0  0
    4.3116   -0.3805    0.6888 C   0  0  0  0  0  0  0  0  0  0  0  0
    3.0961   -0.0512    0.0711 C   0  0  0  0  0  0  0  0  0  0  0  0
    0.6263    2.4026    1.0870 H   0  0  0  0  0  0  0  0  0  0  0  0
    0.8768    4.6098   -0.0479 H   0  0  0  0  0  0  0  0  0  0  0  0
    1.0570    4.7247   -2.5499 H   0  0  0  0  0  0  0  0  0  0  0  0
    0.9799    2.6105   -3.8977 H   0  0  0  0  0  0  0  0  0  0  0  0
    0.7025    0.4080   -2.7609 H   0  0  0  0  0  0  0  0  0  0  0  0
   -1.7160   -0.2019   -1.5541 H   0  0  0  0  0  0  0  0  0  0  0  0
   -2.5476   -2.0854   -2.9459 H   0  0  0  0  0  0  0  0  0  0  0  0
   -1.2181   -4.2109   -3.1194 H   0  0  0  0  0  0  0  0  0  0  0  0
    0.9463   -4.4235   -1.8679 H   0  0  0  0  0  0  0  0  0  0  0  0
    1.7685   -2.5421   -0.4560 H   0  0  0  0  0  0  0  0  0  0  0  0
    0.9321   -1.2653    2.4275 H   0  0  0  0  0  0  0  0  0  0  0  0
    3.0983   -1.8376    3.5420 H   0  0  0  0  0  0  0  0  0  0  0  0
    5.2738   -1.2738    2.4241 H   0  0  0  0  0  0  0  0  0  0  0  0
    5.2600   -0.1247    0.1924 H   0  0  0  0  0  0  0  0  0  0  0  0
    3.0960    0.4606   -0.9023 H   0  0  0  0  0  0  0  0  0  0  0  0
  2 15  1  0  0  0  0
  2  1  1  0  0  0  0
  3  2  1  0  0  0  0
  3  4  1  0  0  0  0
  4 21  1  0  0  0  0
  5 22  1  0  0  0  0
  5  4  2  0  0  0  0
  6  5  1  0  0  0  0
  7  8  1  0  0  0  0
  7  6  2  0  0  0  0
  8  3  2  0  0  0  0
  9  2  1  0  0  0  0
 10 26  1  0  0  0  0
 10  9  2  0  0  0  0
 11 10  1  0  0  0  0
 12 11  2  0  0  0  0
 12 13  1  0  0  0  0
 13 14  2  0  0  0  0
 14  9  1  0  0  0  0
 14 30  1  0  0  0  0
 15 16  1  0  0  0  0
 16 31  1  0  0  0  0
 16 17  2  0  0  0  0
 17 32  1  0  0  0  0
 18 33  1  0  0  0  0
 18 17  1  0  0  0  0
 19 18  2  0  0  0  0
 20 19  1  0  0  0  0
 20 15  2  0  0  0  0
 23  6  1  0  0  0  0
 24  7  1  0  0  0  0
 25  8  1  0  0  0  0
 27 11  1  0  0  0  0
 28 12  1  0  0  0  0
 29 13  1  0  0  0  0
 34 19  1  0  0  0  0
 35 20  1  0  0  0  0
M  END
