1
 OpenBabel05122313063D

 16 16  0  0  0  0  0  0  0  0999 V2000
    1.6426   -0.3798   -0.7142 O   0  5  0  0  0  0  0  0  0  0  0  0
    2.5178   -2.4695   -0.6946 O   0  0  0  0  0  0  0  0  0  0  0  0
    3.8445   -0.6003   -0.3722 N   0  0  0  0  0  0  0  0  0  0  0  0
    2.6481   -1.2400   -0.5965 C   0  0  0  0  0  0  0  0  0  0  0  0
    5.1203   -1.1546   -0.1865 C   0  0  0  0  0  0  0  0  0  0  0  0
    5.3734   -2.5449   -0.2056 C   0  0  0  0  0  0  0  0  0  0  0  0
    6.6802   -3.0117   -0.0087 C   0  0  0  0  0  0  0  0  0  0  0  0
    7.7474   -2.1260    0.2081 C   0  0  0  0  0  0  0  0  0  0  0  0
    7.4933   -0.7452    0.2268 C   0  0  0  0  0  0  0  0  0  0  0  0
    6.1949   -0.2615    0.0314 C   0  0  0  0  0  0  0  0  0  0  0  0
    3.7724    0.4186   -0.3061 H   0  0  0  0  0  0  0  0  0  0  0  0
    4.5381   -3.2344   -0.3729 H   0  0  0  0  0  0  0  0  0  0  0  0
    6.8632   -4.0972   -0.0254 H   0  0  0  0  0  0  0  0  0  0  0  0
    8.7679   -2.5072    0.3612 H   0  0  0  0  0  0  0  0  0  0  0  0
    8.3151   -0.0323    0.3949 H   0  0  0  0  0  0  0  0  0  0  0  0
    5.9979    0.8210    0.0464 H   0  0  0  0  0  0  0  0  0  0  0  0
  1  4  1  0  0  0  0
  2  4  2  0  0  0  0
  3 11  1  0  0  0  0
  3  5  1  0  0  0  0
  4  3  1  0  0  0  0
  5 10  1  0  0  0  0
  6  5  2  0  0  0  0
  6  7  1  0  0  0  0
  7  8  2  0  0  0  0
  8  9  1  0  0  0  0
  8 14  1  0  0  0  0
  9 15  1  0  0  0  0
 10 16  1  0  0  0  0
 10  9  2  0  0  0  0
 12  6  1  0  0  0  0
 13  7  1  0  0  0  0
M  CHG  1   1  -1
M  END
