5
 OpenBabel05122313063D

 37 39  0  0  0  0  0  0  0  0999 V2000
   -1.1062    1.8407   -0.5410 C   0  0  0  0  0  0  0  0  0  0  0  0
    0.3201    1.6661   -0.6266 C   0  0  0  0  0  0  0  0  0  0  0  0
    1.1916    2.7797   -0.4908 C   0  0  0  0  0  0  0  0  0  0  0  0
    2.2829    2.6671   -0.5700 H   0  0  0  0  0  0  0  0  0  0  0  0
   -1.9166    0.8233   -0.5894 O   0  5  0  0  0  0  0  0  0  0  0  0
    0.6640    4.0521   -0.3043 C   0  0  0  0  0  0  0  0  0  0  0  0
   -0.7353    4.2552   -0.2486 C   0  0  0  0  0  0  0  0  0  0  0  0
   -1.1408    5.2666   -0.1124 H   0  0  0  0  0  0  0  0  0  0  0  0
   -1.6051    3.1721   -0.3661 C   0  0  0  0  0  0  0  0  0  0  0  0
    1.7233    5.4257   -0.1609 Cl  0  0  0  0  0  0  0  0  0  0  0  0
   -3.3135    3.4131   -0.3067 Cl  0  0  0  0  0  0  0  0  0  0  0  0
    2.6132   -1.3088   -0.9116 C   0  0  0  0  0  0  0  0  0  0  0  0
    1.8489   -2.4641   -1.1572 C   0  0  0  0  0  0  0  0  0  0  0  0
    0.7525   -2.4053   -1.2348 H   0  0  0  0  0  0  0  0  0  0  0  0
    2.4968   -3.6982   -1.2740 C   0  0  0  0  0  0  0  0  0  0  0  0
    1.8988   -4.6018   -1.4582 H   0  0  0  0  0  0  0  0  0  0  0  0
    3.8950   -3.7847   -1.1491 C   0  0  0  0  0  0  0  0  0  0  0  0
    4.3977   -4.7580   -1.2481 H   0  0  0  0  0  0  0  0  0  0  0  0
    4.6632   -2.6387   -0.8987 C   0  0  0  0  0  0  0  0  0  0  0  0
    5.7560   -2.6957   -0.7988 H   0  0  0  0  0  0  0  0  0  0  0  0
    4.0223   -1.3981   -0.7762 C   0  0  0  0  0  0  0  0  0  0  0  0
    0.7920    0.3317   -0.8563 C   0  0  0  0  0  0  0  0  0  0  0  0
    0.0801   -0.4259   -1.2215 H   0  0  0  0  0  0  0  0  0  0  0  0
    4.6740   -0.2048   -0.5724 O   0  0  0  0  0  0  0  0  0  0  0  0
    5.8662   -0.1698    0.1489 C   0  0  0  0  0  0  0  0  0  0  0  0
    6.9141    0.5948   -0.3816 C   0  0  0  0  0  0  0  0  0  0  0  0
    6.7795    1.0856   -1.3560 H   0  0  0  0  0  0  0  0  0  0  0  0
    8.1070    0.7148    0.3476 C   0  0  0  0  0  0  0  0  0  0  0  0
    8.9336    1.3146   -0.0618 H   0  0  0  0  0  0  0  0  0  0  0  0
    8.2490    0.0702    1.5865 C   0  0  0  0  0  0  0  0  0  0  0  0
    9.1869    0.1640    2.1532 H   0  0  0  0  0  0  0  0  0  0  0  0
    7.1882   -0.6924    2.1030 C   0  0  0  0  0  0  0  0  0  0  0  0
    7.2903   -1.1926    3.0777 H   0  0  0  0  0  0  0  0  0  0  0  0
    5.9866   -0.8151    1.3904 C   0  0  0  0  0  0  0  0  0  0  0  0
    5.1470   -1.4018    1.7909 H   0  0  0  0  0  0  0  0  0  0  0  0
    2.0612   -0.0246   -0.7545 N   0  0  0  0  0  4  0  0  0  0  0  0
    2.7567    0.6701   -0.4475 H   0  0  0  0  0  0  0  0  0  0  0  0
  1  9  1  0  0  0  0
  2  1  2  0  0  0  0
  2  3  1  0  0  0  0
  3  6  2  0  0  0  0
  4  3  1  0  0  0  0
  5  1  1  0  0  0  0
  6  7  1  0  0  0  0
  6 10  1  0  0  0  0
  7  8  1  0  0  0  0
  9 11  1  0  0  0  0
  9  7  2  0  0  0  0
 12 21  1  0  0  0  0
 12 36  1  0  0  0  0
 13 12  2  0  0  0  0
 14 13  1  0  0  0  0
 15 13  1  0  0  0  0
 15 17  2  0  0  0  0
 16 15  1  0  0  0  0
 17 19  1  0  0  0  0
 18 17  1  0  0  0  0
 19 20  1  0  0  0  0
 19 21  2  0  0  0  0
 21 24  1  0  0  0  0
 22 36  2  0  0  0  0
 22  2  1  0  0  0  0
 23 22  1  0  0  0  0
 24 25  1  0  0  0  0
 25 34  1  0  0  0  0
 26 25  2  0  0  0  0
 26 28  1  0  0  0  0
 27 26  1  0  0  0  0
 28 30  2  0  0  0  0
 29 28  1  0  0  0  0
 30 32  1  0  0  0  0
 30 31  1  0  0  0  0
 32 33  1  0  0  0  0
 34 35  1  0  0  0  0
 34 32  2  0  0  0  0
 36 37  1  0  0  0  0
M  CHG  1   5  -1
M  END
