1
 OpenBabel05122313063D

 10  9  0  0  0  0  0  0  0  0999 V2000
    1.6406    0.7841    0.7980 O   0  5  0  0  0  0  0  0  0  0  0  0
    1.7496   -1.5033   -0.6015 N   0  0  0  0  0  0  0  0  0  0  0  0
    2.7757    0.2632    0.6159 C   0  0  0  0  0  0  0  0  0  0  0  0
    3.8891    0.8278    1.1243 N   0  0  0  0  0  4  0  0  0  0  0  0
    2.9139   -0.8932   -0.1150 N   0  0  0  0  0  0  0  0  0  0  0  0
    4.8217    0.4295    1.0247 H   0  0  0  0  0  0  0  0  0  0  0  0
    3.7811    1.6863    1.6652 H   0  0  0  0  0  0  0  0  0  0  0  0
    3.8152   -1.3568   -0.2565 H   0  0  0  0  0  0  0  0  0  0  0  0
    1.7644   -1.6035   -1.6286 H   0  0  0  0  0  0  0  0  0  0  0  0
    1.5986   -2.4366   -0.1876 H   0  0  0  0  0  0  0  0  0  0  0  0
  2 10  1  0  0  0  0
  2  5  1  0  0  0  0
  3  1  1  0  0  0  0
  3  4  2  0  0  0  0
  4  7  1  0  0  0  0
  5  3  1  0  0  0  0
  6  4  1  0  0  0  0
  8  5  1  0  0  0  0
  9  2  1  0  0  0  0
M  CHG  1   1  -1
M  END
