1
 OpenBabel05122313063D

 14 14  0  0  0  0  0  0  0  0999 V2000
   -0.2881    0.9637   -1.5556 O   0  5  0  0  0  0  0  0  0  0  0  0
   -0.9685    2.8037   -2.5864 O   0  0  0  0  0  0  0  0  0  0  0  0
    2.2750    2.0682    0.7962 N   0  0  0  0  0  0  0  0  0  0  0  0
    3.9116    1.3709   -0.5482 N   0  0  0  0  0  0  0  0  0  0  0  0
    3.4140    1.3855    0.7254 C   0  0  0  0  0  0  0  0  0  0  0  0
    3.0174    2.0503   -1.3423 C   0  0  0  0  0  0  0  0  0  0  0  0
    2.0002    2.4789   -0.5027 C   0  0  0  0  0  0  0  0  0  0  0  0
    0.7194    3.1364   -0.9054 C   0  0  0  0  0  0  0  0  0  0  0  0
   -0.2473    2.2619   -1.7505 C   0  0  0  0  0  0  0  0  0  0  0  0
    4.5505    0.6581   -0.9248 H   0  0  0  0  0  0  0  0  0  0  0  0
    3.9229    0.8925    1.5632 H   0  0  0  0  0  0  0  0  0  0  0  0
    3.1257    2.0938   -2.4294 H   0  0  0  0  0  0  0  0  0  0  0  0
    0.1716    3.4694    0.0002 H   0  0  0  0  0  0  0  0  0  0  0  0
    0.8924    4.0487   -1.5090 H   0  0  0  0  0  0  0  0  0  0  0  0
  2  9  2  0  0  0  0
  4  5  1  0  0  0  0
  5  3  2  0  0  0  0
  5 11  1  0  0  0  0
  6  4  1  0  0  0  0
  6  7  2  0  0  0  0
  7  3  1  0  0  0  0
  8  7  1  0  0  0  0
  8 13  1  0  0  0  0
  9  1  1  0  0  0  0
  9  8  1  0  0  0  0
 10  4  1  0  0  0  0
 12  6  1  0  0  0  0
 14  8  1  0  0  0  0
M  CHG  1   1  -1
M  END
