8
 OpenBabel05122313063D

 14 13  0  0  0  0  0  0  0  0999 V2000
   -0.9889    3.5586   -1.0174 C   0  0  0  0  0  0  0  0  0  0  0  0
   -1.4502    3.3977   -2.0159 H   0  0  0  0  0  0  0  0  0  0  0  0
   -1.1510    4.6132   -0.7291 H   0  0  0  0  0  0  0  0  0  0  0  0
   -1.4929    2.9075   -0.2720 H   0  0  0  0  0  0  0  0  0  0  0  0
    0.4373    3.2927   -1.0350 N   0  0  0  0  0  0  0  0  0  0  0  0
    1.0837    4.0580   -0.8521 H   0  0  0  0  0  0  0  0  0  0  0  0
    0.9270    2.0291   -1.1426 C   0  0  0  0  0  3  0  0  0  0  0  0
    0.1472    1.0586   -1.4035 O   0  0  0  0  0  1  0  0  0  0  0  0
    2.2565    1.8315   -0.9742 N   0  0  0  0  0  0  0  0  0  0  0  0
    2.5318    0.8325   -0.9593 H   0  0  0  0  0  0  0  0  0  0  0  0
    3.1721    2.8033   -0.4172 C   0  0  0  0  0  0  0  0  0  0  0  0
    3.3658    3.6469   -1.1171 H   0  0  0  0  0  0  0  0  0  0  0  0
    4.1406    2.3059   -0.2263 H   0  0  0  0  0  0  0  0  0  0  0  0
    2.8081    3.2159    0.5506 H   0  0  0  0  0  0  0  0  0  0  0  0
  1  3  1  0  0  0  0
  1  4  1  0  0  0  0
  2  1  1  0  0  0  0
  5  1  1  0  0  0  0
  5  6  1  0  0  0  0
  7  5  1  0  0  0  0
  7  9  1  0  0  0  0
  8  7  1  0  0  0  0
  9 10  1  0  0  0  0
  9 11  1  0  0  0  0
 11 13  1  0  0  0  0
 11 14  1  0  0  0  0
 12 11  1  0  0  0  0
M  END
