1
 OpenBabel05122313063D

 16 16  0  0  1  0  0  0  0  0999 V2000
   -1.7072   -0.0305   -0.7237 O   0  0  0  0  0  1  0  0  0  0  0  0
   -1.1910    2.0320    0.1084 N   0  0  0  0  0  0  0  0  0  0  0  0
   -0.2046    1.7466    0.2185 H   0  0  0  0  0  0  0  0  0  0  0  0
   -1.5265    2.8743    0.5723 H   0  0  0  0  0  0  0  0  0  0  0  0
   -2.0607    1.1292   -0.3850 C   0  0  1  0  0  3  0  0  0  0  0  0
   -3.4897    1.5304   -0.5375 C   0  0  0  0  0  0  0  0  0  0  0  0
   -3.8938    2.8791   -0.6260 C   0  0  0  0  0  0  0  0  0  0  0  0
   -3.1448    3.6861   -0.6217 H   0  0  0  0  0  0  0  0  0  0  0  0
   -5.2505    3.2003   -0.7646 C   0  0  0  0  0  0  0  0  0  0  0  0
   -5.5589    4.2535   -0.8426 H   0  0  0  0  0  0  0  0  0  0  0  0
   -6.2121    2.1778   -0.8154 C   0  0  0  0  0  0  0  0  0  0  0  0
   -7.2777    2.4315   -0.9223 H   0  0  0  0  0  0  0  0  0  0  0  0
   -5.8137    0.8328   -0.7381 C   0  0  0  0  0  0  0  0  0  0  0  0
   -6.5663    0.0314   -0.7812 H   0  0  0  0  0  0  0  0  0  0  0  0
   -4.4583    0.5084   -0.6064 C   0  0  0  0  0  0  0  0  0  0  0  0
   -4.1207   -0.5362   -0.5481 H   0  0  0  0  0  0  0  0  0  0  0  0
  2  3  1  0  0  0  0
  2  4  1  0  0  0  0
  5  1  1  6  0  0  0
  5  2  1  0  0  0  0
  6  5  1  0  0  0  0
  7  8  1  0  0  0  0
  7  6  2  0  0  0  0
  9  7  1  0  0  0  0
 10  9  1  0  0  0  0
 11  9  2  0  0  0  0
 11 13  1  0  0  0  0
 12 11  1  0  0  0  0
 13 15  2  0  0  0  0
 14 13  1  0  0  0  0
 15 16  1  0  0  0  0
 15  6  1  0  0  0  0
M  END
