1
 OpenBabel05122313063D

 18 18  0  0  1  0  0  0  0  0999 V2000
    0.4416   -0.9491    0.0006 O   0  5  0  0  0  0  0  0  0  0  0  0
    5.2214   -0.9129   -0.0002 O   0  0  0  0  0  0  0  0  0  0  0  0
    1.5958    0.9639    0.0004 O   0  0  0  0  0  0  0  0  0  0  0  0
    2.7556    1.6918    0.0002 C   0  0  1  0  0  3  0  0  0  0  0  0
    3.9633    1.0533    0.0000 C   0  0  0  0  0  0  0  0  0  0  0  0
    4.9018    1.6218   -0.0001 H   0  0  0  0  0  0  0  0  0  0  0  0
    4.0057   -0.3822    0.0000 C   0  0  0  0  0  0  0  0  0  0  0  0
    2.5040    3.1563    0.0001 C   0  0  0  0  0  0  0  0  0  0  0  0
    3.4540    3.7187    0.0006 H   0  0  0  0  0  0  0  0  0  0  0  0
    1.9117    3.4450    0.8932 H   0  0  0  0  0  0  0  0  0  0  0  0
    1.9127    3.4450   -0.8936 H   0  0  0  0  0  0  0  0  0  0  0  0
    1.5816   -0.4040    0.0004 C   0  0  0  0  0  0  0  0  0  0  0  0
    5.3747   -2.3382   -0.0003 C   0  0  0  0  0  0  0  0  0  0  0  0
    4.9201   -2.7825    0.9092 H   0  0  0  0  0  0  0  0  0  0  0  0
    6.4623   -2.5249   -0.0007 H   0  0  0  0  0  0  0  0  0  0  0  0
    4.9195   -2.7824   -0.9095 H   0  0  0  0  0  0  0  0  0  0  0  0
    2.8082   -1.1062    0.0002 C   0  0  0  0  0  0  0  0  0  0  0  0
    2.7625   -2.2005    0.0002 H   0  0  0  0  0  0  0  0  0  0  0  0
  2  7  1  0  0  0  0
  4  8  1  6  0  0  0
  4  3  1  0  0  0  0
  5  4  1  0  0  0  0
  6  5  1  0  0  0  0
  7  5  2  0  0  0  0
  7 17  1  0  0  0  0
  8  9  1  0  0  0  0
  8 10  1  0  0  0  0
 11  8  1  0  0  0  0
 12  3  1  0  0  0  0
 12  1  1  0  0  0  0
 13  2  1  0  0  0  0
 13 14  1  0  0  0  0
 15 13  1  0  0  0  0
 16 13  1  0  0  0  0
 17 18  1  0  0  0  0
 17 12  2  0  0  0  0
M  CHG  1   1  -1
M  END
