1
 OpenBabel05122313063D

 19 19  0  0  0  0  0  0  0  0999 V2000
    2.0912   -1.2130   -0.0912 O   0  0  0  0  0  1  0  0  0  0  0  0
    2.8082   -1.1696   -1.1905 N   0  0  0  0  0  0  0  0  0  0  0  0
    2.1302   -1.5560   -2.4338 C   0  0  0  0  0  0  0  0  0  0  0  0
    1.6844   -2.5589   -2.2911 H   0  0  0  0  0  0  0  0  0  0  0  0
    2.8454   -1.5694   -3.2746 H   0  0  0  0  0  0  0  0  0  0  0  0
    1.3261   -0.8175   -2.6278 H   0  0  0  0  0  0  0  0  0  0  0  0
    4.0809   -0.8141   -1.1817 C   0  0  0  0  0  3  0  0  0  0  0  0
    4.5654   -0.8723   -2.1663 H   0  0  0  0  0  0  0  0  0  0  0  0
    7.0406    0.5655    0.6215 C   0  0  0  0  0  0  0  0  0  0  0  0
    8.0620    0.8845    0.3677 H   0  0  0  0  0  0  0  0  0  0  0  0
    6.1991    0.0661   -0.3744 C   0  0  0  0  0  0  0  0  0  0  0  0
    6.5622   -0.0050   -1.4117 H   0  0  0  0  0  0  0  0  0  0  0  0
    4.4222   -0.2623    1.2789 C   0  0  0  0  0  0  0  0  0  0  0  0
    3.4092   -0.5974    1.5260 H   0  0  0  0  0  0  0  0  0  0  0  0
    5.2761    0.2381    2.2671 C   0  0  0  0  0  0  0  0  0  0  0  0
    4.9226    0.2981    3.3073 H   0  0  0  0  0  0  0  0  0  0  0  0
    4.8732   -0.3488   -0.0670 C   0  0  0  0  0  0  0  0  0  0  0  0
    6.5797    0.6547    1.9466 C   0  0  0  0  0  0  0  0  0  0  0  0
    7.2426    1.0444    2.7337 H   0  0  0  0  0  0  0  0  0  0  0  0
  2  7  1  0  0  0  0
  2  1  1  0  0  0  0
  3  4  1  0  0  0  0
  3  2  1  0  0  0  0
  5  3  1  0  0  0  0
  6  3  1  0  0  0  0
  7 17  1  0  0  0  0
  8  7  1  0  0  0  0
  9 18  1  0  0  0  0
 10  9  1  0  0  0  0
 11 17  1  0  0  0  0
 11  9  2  0  0  0  0
 12 11  1  0  0  0  0
 13 14  1  0  0  0  0
 13 15  1  0  0  0  0
 15 16  1  0  0  0  0
 17 13  2  0  0  0  0
 18 15  2  0  0  0  0
 18 19  1  0  0  0  0
M  END
