1
 OpenBabel05122313063D

 40 39  0  0  0  0  0  0  0  0999 V2000
   -0.4897    0.5522    0.0836 O   0  0  0  0  0  1  0  0  0  0  0  0
    2.3924   -0.8275   -0.2191 P   0  0  0  0  0  0  0  0  0  0  0  0
    1.0032    1.2489   -2.1299 F   0  0  0  0  0  0  0  0  0  0  0  0
   -0.3427    2.8435   -1.5198 F   0  0  0  0  0  0  0  0  0  0  0  0
    1.7943    3.0218   -1.1280 F   0  0  0  0  0  0  0  0  0  0  0  0
    1.1220    3.4104    1.4912 F   0  0  0  0  0  0  0  0  0  0  0  0
   -0.9911    3.0928    1.0499 F   0  0  0  0  0  0  0  0  0  0  0  0
    0.0097    1.8297    2.5096 F   0  0  0  0  0  0  0  0  0  0  0  0
    0.5585    1.4202    0.2164 C   0  0  0  0  0  0  0  0  0  0  0  0
    0.7530    2.1515   -1.1544 C   0  0  0  0  0  0  0  0  0  0  0  0
    0.1714    2.4665    1.3194 C   0  0  0  0  0  0  0  0  0  0  0  0
    1.8976    0.7670    0.6600 C   0  0  0  0  0  0  0  0  0  0  0  0
    1.8279    0.5667    1.7456 H   0  0  0  0  0  0  0  0  0  0  0  0
    2.6969    1.5219    0.5419 H   0  0  0  0  0  0  0  0  0  0  0  0
    4.2283   -0.4259   -0.6503 C   0  0  0  0  0  0  0  0  0  0  0  0
    5.0675    0.2839    0.4235 C   0  0  0  0  0  0  0  0  0  0  0  0
    5.2188   -0.3336    1.3268 H   0  0  0  0  0  0  0  0  0  0  0  0
    4.6233    1.2489    0.7392 H   0  0  0  0  0  0  0  0  0  0  0  0
    6.0721    0.5178    0.0085 H   0  0  0  0  0  0  0  0  0  0  0  0
    4.9205   -1.7355   -1.0654 C   0  0  0  0  0  0  0  0  0  0  0  0
    5.8936   -1.5044   -1.5495 H   0  0  0  0  0  0  0  0  0  0  0  0
    4.3108   -2.3098   -1.7928 H   0  0  0  0  0  0  0  0  0  0  0  0
    5.1341   -2.3891   -0.1971 H   0  0  0  0  0  0  0  0  0  0  0  0
    4.1335    0.4892   -1.8896 C   0  0  0  0  0  0  0  0  0  0  0  0
    5.1558    0.6948   -2.2739 H   0  0  0  0  0  0  0  0  0  0  0  0
    3.6662    1.4658   -1.6576 H   0  0  0  0  0  0  0  0  0  0  0  0
    3.5461    0.0184   -2.7027 H   0  0  0  0  0  0  0  0  0  0  0  0
    2.3338   -2.0937    1.2342 C   0  0  0  0  0  0  0  0  0  0  0  0
    3.3426   -1.8828    2.3702 C   0  0  0  0  0  0  0  0  0  0  0  0
    3.1256   -2.5878    3.2025 H   0  0  0  0  0  0  0  0  0  0  0  0
    3.2936   -0.8569    2.7893 H   0  0  0  0  0  0  0  0  0  0  0  0
    4.3835   -2.0737    2.0451 H   0  0  0  0  0  0  0  0  0  0  0  0
    2.5083   -3.4958    0.6174 C   0  0  0  0  0  0  0  0  0  0  0  0
    3.5200   -3.6563    0.2011 H   0  0  0  0  0  0  0  0  0  0  0  0
    1.7756   -3.6702   -0.1967 H   0  0  0  0  0  0  0  0  0  0  0  0
    2.3422   -4.2705    1.3969 H   0  0  0  0  0  0  0  0  0  0  0  0
    0.9074   -2.0133    1.8080 C   0  0  0  0  0  0  0  0  0  0  0  0
    0.1380   -2.1051    1.0160 H   0  0  0  0  0  0  0  0  0  0  0  0
    0.7200   -1.0645    2.3454 H   0  0  0  0  0  0  0  0  0  0  0  0
    0.7540   -2.8422    2.5320 H   0  0  0  0  0  0  0  0  0  0  0  0
  1  9  1  0  0  0  0
  2 12  1  0  0  0  0
  2 28  1  0  0  0  0
  3 10  1  0  0  0  0
  4 10  1  0  0  0  0
  7 11  1  0  0  0  0
  9 12  1  0  0  0  0
  9 11  1  0  0  0  0
 10  5  1  0  0  0  0
 10  9  1  0  0  0  0
 11  6  1  0  0  0  0
 11  8  1  0  0  0  0
 12 13  1  0  0  0  0
 14 12  1  0  0  0  0
 15  2  1  0  0  0  0
 15 16  1  0  0  0  0
 16 18  1  0  0  0  0
 16 17  1  0  0  0  0
 19 16  1  0  0  0  0
 20 15  1  0  0  0  0
 20 23  1  0  0  0  0
 21 20  1  0  0  0  0
 22 20  1  0  0  0  0
 24 26  1  0  0  0  0
 24 15  1  0  0  0  0
 25 24  1  0  0  0  0
 27 24  1  0  0  0  0
 28 37  1  0  0  0  0
 28 29  1  0  0  0  0
 29 31  1  0  0  0  0
 29 30  1  0  0  0  0
 32 29  1  0  0  0  0
 33 28  1  0  0  0  0
 33 36  1  0  0  0  0
 34 33  1  0  0  0  0
 35 33  1  0  0  0  0
 37 39  1  0  0  0  0
 37 40  1  0  0  0  0
 38 37  1  0  0  0  0
M  END
