1
 OpenBabel05122313063D

 31 32  0  0  0  0  0  0  0  0999 V2000
    0.9784   -0.0635    1.4937 O   0  0  0  0  0  1  0  0  0  0  0  0
   -1.2059    0.0067    1.1460 O   0  0  0  0  0  0  0  0  0  0  0  0
   -0.2028    0.1453    1.9043 C   0  0  0  0  0  3  0  0  0  0  0  0
   -0.3449    0.4496    2.9646 H   0  0  0  0  0  0  0  0  0  0  0  0
   -2.7432    0.3263    1.5071 B   0  0  0  0  0  0  0  0  0  0  0  0
   -2.9271    0.5524    3.0938 C   0  0  0  0  0  0  0  0  0  0  0  0
   -2.6182   -0.3161    3.7123 H   0  0  0  0  0  0  0  0  0  0  0  0
   -3.9970    0.7304    3.3212 H   0  0  0  0  0  0  0  0  0  0  0  0
   -2.3781    1.4503    3.4490 H   0  0  0  0  0  0  0  0  0  0  0  0
   -3.4460   -1.0022    0.8525 C   0  0  0  0  0  0  0  0  0  0  0  0
   -4.5430   -1.7487    2.8475 F   0  0  0  0  0  0  0  0  0  0  0  0
   -4.2263   -1.9361    1.5529 C   0  0  0  0  0  0  0  0  0  0  0  0
   -5.4613   -3.9747    1.6869 F   0  0  0  0  0  0  0  0  0  0  0  0
   -4.7243   -3.1179    0.9695 C   0  0  0  0  0  0  0  0  0  0  0  0
   -4.8822   -4.5300   -0.9372 F   0  0  0  0  0  0  0  0  0  0  0  0
   -4.4326   -3.4058   -0.3721 C   0  0  0  0  0  0  0  0  0  0  0  0
   -3.3569   -2.7565   -2.3963 F   0  0  0  0  0  0  0  0  0  0  0  0
   -3.6641   -2.4956   -1.1151 C   0  0  0  0  0  0  0  0  0  0  0  0
   -2.4888   -0.4870   -1.2834 F   0  0  0  0  0  0  0  0  0  0  0  0
   -3.2098   -1.3244   -0.4948 C   0  0  0  0  0  0  0  0  0  0  0  0
   -3.0524    1.7050    0.6726 C   0  0  0  0  0  0  0  0  0  0  0  0
   -0.9834    2.7109    1.3610 F   0  0  0  0  0  0  0  0  0  0  0  0
   -2.1485    2.7794    0.6575 C   0  0  0  0  0  0  0  0  0  0  0  0
   -1.4281    4.9403   -0.0551 F   0  0  0  0  0  0  0  0  0  0  0  0
   -2.3496    3.9678   -0.0613 C   0  0  0  0  0  0  0  0  0  0  0  0
   -3.7686    5.2527   -1.4703 F   0  0  0  0  0  0  0  0  0  0  0  0
   -3.5417    4.1281   -0.7846 C   0  0  0  0  0  0  0  0  0  0  0  0
   -5.6417    3.2498   -1.4505 F   0  0  0  0  0  0  0  0  0  0  0  0
   -4.4967    3.0989   -0.7746 C   0  0  0  0  0  0  0  0  0  0  0  0
   -5.2048    0.9846   -0.0739 F   0  0  0  0  0  0  0  0  0  0  0  0
   -4.2384    1.9227   -0.0483 C   0  0  0  0  0  0  0  0  0  0  0  0
  1  3  1  0  0  0  0
  2  5  1  0  0  0  0
  2  3  1  0  0  0  0
  3  4  1  0  0  0  0
  5  6  1  0  0  0  0
  6  8  1  0  0  0  0
  6  9  1  0  0  0  0
  6  7  1  0  0  0  0
 10  5  1  0  0  0  0
 10 12  1  0  0  0  0
 12 11  1  0  0  0  0
 14 12  2  0  0  0  0
 14 13  1  0  0  0  0
 15 16  1  0  0  0  0
 16 14  1  0  0  0  0
 17 18  1  0  0  0  0
 18 20  1  0  0  0  0
 18 16  2  0  0  0  0
 19 20  1  0  0  0  0
 20 10  2  0  0  0  0
 21  5  1  0  0  0  0
 23 21  1  0  0  0  0
 23 22  1  0  0  0  0
 25 24  1  0  0  0  0
 25 23  2  0  0  0  0
 26 27  1  0  0  0  0
 27 29  2  0  0  0  0
 27 25  1  0  0  0  0
 28 29  1  0  0  0  0
 29 31  1  0  0  0  0
 30 31  1  0  0  0  0
 31 21  2  0  0  0  0
M  END
