1
 OpenBabel05122313063D

  6  5  0  0  0  0  0  0  0  0999 V2000
   -0.0203   -1.9332    0.5733 O   0  5  0  0  0  0  0  0  0  0  0  0
    0.0589   -2.8389   -1.5210 O   0  0  0  0  0  0  0  0  0  0  0  0
   -0.1036   -4.1706    0.3272 N   0  0  0  0  0  0  0  0  0  0  0  0
   -0.0042   -2.9200   -0.2809 C   0  0  0  0  0  0  0  0  0  0  0  0
    0.1325   -4.9757   -0.2503 H   0  0  0  0  0  0  0  0  0  0  0  0
    0.0647   -4.2380    1.3300 H   0  0  0  0  0  0  0  0  0  0  0  0
  2  4  2  0  0  0  0
  3  6  1  0  0  0  0
  4  3  1  0  0  0  0
  4  1  1  0  0  0  0
  5  3  1  0  0  0  0
M  CHG  1   1  -1
M  END
