2
 OpenBabel05122313063D

 31 32  0  0  0  0  0  0  0  0999 V2000
    1.3028    0.6361   -0.3483 P   0  0  0  0  0  0  0  0  0  0  0  0
    0.0023    0.1926    0.3670 O   0  0  0  0  0  1  0  0  0  0  0  0
    2.4796   -0.1721    0.4848 O   0  0  0  0  0  0  0  0  0  0  0  0
    1.4002    0.5263   -1.8491 O   0  0  0  0  0  0  0  0  0  0  0  0
    1.6337    2.1700    0.2166 O   0  0  0  0  0  0  0  0  0  0  0  0
    8.5071    0.4871   -1.2664 O   0  0  0  0  0  0  0  0  0  0  0  0
    8.7509   -0.3486    0.7409 O   0  0  0  0  0  0  0  0  0  0  0  0
   -3.5138    5.5920   -0.6160 O   0  0  0  0  0  0  0  0  0  0  0  0
   -2.5894    6.7798    0.9737 O   0  0  0  0  0  0  0  0  0  0  0  0
    8.0701    0.0533   -0.2018 N   0  0  0  0  0  0  0  0  0  0  0  0
   -2.5861    5.8627    0.1598 N   0  0  0  0  0  0  0  0  0  0  0  0
    3.8420   -0.0779    0.2556 C   0  0  0  0  0  0  0  0  0  0  0  0
    4.3906    0.4061   -0.9476 C   0  0  0  0  0  0  0  0  0  0  0  0
    5.7817    0.4510   -1.0902 C   0  0  0  0  0  0  0  0  0  0  0  0
    6.5963    0.0087   -0.0407 C   0  0  0  0  0  0  0  0  0  0  0  0
    6.0578   -0.4787    1.1577 C   0  0  0  0  0  0  0  0  0  0  0  0
    4.6694   -0.5189    1.3051 C   0  0  0  0  0  0  0  0  0  0  0  0
   -0.1092    3.3070   -1.0435 C   0  0  0  0  0  0  0  0  0  0  0  0
    0.6658    3.1400    0.1247 C   0  0  0  0  0  0  0  0  0  0  0  0
    0.4556    3.9560    1.2533 C   0  0  0  0  0  0  0  0  0  0  0  0
   -0.5773    4.8969    1.2439 C   0  0  0  0  0  0  0  0  0  0  0  0
   -1.1663    4.2214   -1.0394 C   0  0  0  0  0  0  0  0  0  0  0  0
   -1.4037    4.9844    0.1133 C   0  0  0  0  0  0  0  0  0  0  0  0
    3.7273    0.7273   -1.7626 H   0  0  0  0  0  0  0  0  0  0  0  0
    6.2554    0.8210   -2.0094 H   0  0  0  0  0  0  0  0  0  0  0  0
    6.7402   -0.8108    1.9514 H   0  0  0  0  0  0  0  0  0  0  0  0
    4.2066   -0.8843    2.2327 H   0  0  0  0  0  0  0  0  0  0  0  0
    0.1170    2.6950   -1.9289 H   0  0  0  0  0  0  0  0  0  0  0  0
    1.0955    3.8163    2.1356 H   0  0  0  0  0  0  0  0  0  0  0  0
   -0.7832    5.5421    2.1088 H   0  0  0  0  0  0  0  0  0  0  0  0
   -1.8183    4.3504   -1.9140 H   0  0  0  0  0  0  0  0  0  0  0  0
  1  5  1  0  0  0  0
  1  2  1  0  0  0  0
  1  3  1  0  0  0  0
  4  1  2  0  0  0  0
  6 10  2  0  0  0  0
  8 11  2  0  0  0  0
 10 15  1  0  0  0  0
 10  7  2  0  0  0  0
 11  9  2  0  0  0  0
 12  3  1  0  0  0  0
 12 17  1  0  0  0  0
 13 12  2  0  0  0  0
 14 13  1  0  0  0  0
 14 15  2  0  0  0  0
 15 16  1  0  0  0  0
 16 17  2  0  0  0  0
 16 26  1  0  0  0  0
 17 27  1  0  0  0  0
 18 22  2  0  0  0  0
 18 19  1  0  0  0  0
 19  5  1  0  0  0  0
 19 20  2  0  0  0  0
 20 29  1  0  0  0  0
 21 20  1  0  0  0  0
 21 30  1  0  0  0  0
 22 23  1  0  0  0  0
 23 11  1  0  0  0  0
 23 21  2  0  0  0  0
 24 13  1  0  0  0  0
 25 14  1  0  0  0  0
 28 18  1  0  0  0  0
 31 22  1  0  0  0  0
M  END
