1
 OpenBabel05122313063D

 19 19  0  0  0  0  0  0  0  0999 V2000
   -1.6331    0.3853   -0.5127 O   0  5  0  0  0  0  0  0  0  0  0  0
   -2.8567    1.2182    1.1984 O   0  0  0  0  0  0  0  0  0  0  0  0
   -5.3013    0.5647    1.4762 O   0  0  0  0  0  0  0  0  0  0  0  0
   -4.4025    0.9978    1.6240 H   0  0  0  0  0  0  0  0  0  0  0  0
   -7.3886   -0.8042    0.6624 O   0  0  0  0  0  0  0  0  0  0  0  0
   -2.7311    0.4788    0.1532 C   0  0  0  0  0  0  0  0  0  0  0  0
   -3.8986   -0.2980   -0.3107 C   0  0  0  0  0  0  0  0  0  0  0  0
   -5.1316   -0.2005    0.3954 C   0  0  0  0  0  0  0  0  0  0  0  0
   -6.2543   -0.9590   -0.0708 C   0  0  0  0  0  0  0  0  0  0  0  0
   -6.1216   -1.7757   -1.1996 C   0  0  0  0  0  0  0  0  0  0  0  0
   -6.9815   -2.3582   -1.5572 H   0  0  0  0  0  0  0  0  0  0  0  0
   -4.8900   -1.8636   -1.8899 C   0  0  0  0  0  0  0  0  0  0  0  0
   -4.8120   -2.5144   -2.7729 H   0  0  0  0  0  0  0  0  0  0  0  0
   -3.7920   -1.1345   -1.4520 C   0  0  0  0  0  0  0  0  0  0  0  0
   -2.8223   -1.1834   -1.9654 H   0  0  0  0  0  0  0  0  0  0  0  0
   -8.5368   -1.5219    0.2629 C   0  0  0  0  0  0  0  0  0  0  0  0
   -8.8663   -1.2432   -0.7643 H   0  0  0  0  0  0  0  0  0  0  0  0
   -9.3368   -1.2596    0.9800 H   0  0  0  0  0  0  0  0  0  0  0  0
   -8.3712   -2.6233    0.2928 H   0  0  0  0  0  0  0  0  0  0  0  0
  1  6  1  0  0  0  0
  3  4  1  0  0  0  0
  6  2  2  0  0  0  0
  7  6  1  0  0  0  0
  7  8  1  0  0  0  0
  8  3  1  0  0  0  0
  9  8  2  0  0  0  0
  9  5  1  0  0  0  0
 10  9  1  0  0  0  0
 11 10  1  0  0  0  0
 12 14  1  0  0  0  0
 12 10  2  0  0  0  0
 13 12  1  0  0  0  0
 14  7  2  0  0  0  0
 15 14  1  0  0  0  0
 16 19  1  0  0  0  0
 16  5  1  0  0  0  0
 16 18  1  0  0  0  0
 17 16  1  0  0  0  0
M  CHG  1   1  -1
M  END
