3
 OpenBabel05122313063D

 51 54  0  0  0  0  0  0  0  0999 V2000
   -0.8408    1.1720    0.2186 P   0  0  0  0  0  4  0  0  0  0  0  0
   -3.7587    0.1695    0.7597 P   0  0  0  0  0  0  0  0  0  0  0  0
    0.5029    0.5442   -0.2703 O   0  0  0  0  0  1  0  0  0  0  0  0
   -4.2786    1.5263    1.2305 O   0  0  0  0  0  0  0  0  0  0  0  0
   -0.5245    2.4433    1.4684 C   0  0  0  0  0  0  0  0  0  0  0  0
   -1.5652    2.9196    2.2944 C   0  0  0  0  0  0  0  0  0  0  0  0
   -2.5865    2.5052    2.2058 H   0  0  0  0  0  0  0  0  0  0  0  0
   -1.2856    3.9401    3.2163 C   0  0  0  0  0  0  0  0  0  0  0  0
   -2.0905    4.3188    3.8643 H   0  0  0  0  0  0  0  0  0  0  0  0
    0.0093    4.4770    3.3133 C   0  0  0  0  0  0  0  0  0  0  0  0
    0.2168    5.2797    4.0376 H   0  0  0  0  0  0  0  0  0  0  0  0
    1.0400    3.9917    2.4920 C   0  0  0  0  0  0  0  0  0  0  0  0
    2.0546    4.4127    2.5576 H   0  0  0  0  0  0  0  0  0  0  0  0
    0.7777    2.9695    1.5696 C   0  0  0  0  0  0  0  0  0  0  0  0
    1.5749    2.5739    0.9271 H   0  0  0  0  0  0  0  0  0  0  0  0
   -1.6358    1.9351   -1.2217 C   0  0  0  0  0  0  0  0  0  0  0  0
   -2.4903    3.0471   -1.0937 C   0  0  0  0  0  0  0  0  0  0  0  0
   -2.6759    3.4977   -0.1092 H   0  0  0  0  0  0  0  0  0  0  0  0
   -3.1228    3.5620   -2.2334 C   0  0  0  0  0  0  0  0  0  0  0  0
   -3.7925    4.4298   -2.1382 H   0  0  0  0  0  0  0  0  0  0  0  0
   -2.9091    2.9688   -3.4877 C   0  0  0  0  0  0  0  0  0  0  0  0
   -3.4154    3.3715   -4.3782 H   0  0  0  0  0  0  0  0  0  0  0  0
   -2.0546    1.8613   -3.6100 C   0  0  0  0  0  0  0  0  0  0  0  0
   -1.8905    1.3934   -4.5921 H   0  0  0  0  0  0  0  0  0  0  0  0
   -1.4090    1.3407   -2.4805 C   0  0  0  0  0  0  0  0  0  0  0  0
   -0.7315    0.4768   -2.5690 H   0  0  0  0  0  0  0  0  0  0  0  0
   -1.9497   -0.0702    0.9590 C   0  0  0  0  0  0  0  0  0  0  0  0
   -1.6374   -1.0397    0.4970 H   0  0  0  0  0  0  0  0  0  0  0  0
   -1.7139   -0.1382    2.0397 H   0  0  0  0  0  0  0  0  0  0  0  0
   -4.1424   -0.1588   -0.9978 C   0  0  0  0  0  0  0  0  0  0  0  0
   -5.1116    0.6726   -1.5909 C   0  0  0  0  0  0  0  0  0  0  0  0
   -5.5430    1.4908   -0.9941 H   0  0  0  0  0  0  0  0  0  0  0  0
   -5.4921    0.4589   -2.9237 C   0  0  0  0  0  0  0  0  0  0  0  0
   -6.2460    1.1125   -3.3886 H   0  0  0  0  0  0  0  0  0  0  0  0
   -4.9062   -0.5799   -3.6644 C   0  0  0  0  0  0  0  0  0  0  0  0
   -5.2044   -0.7451   -4.7112 H   0  0  0  0  0  0  0  0  0  0  0  0
   -3.9315   -1.4010   -3.0743 C   0  0  0  0  0  0  0  0  0  0  0  0
   -3.4551   -2.2041   -3.6567 H   0  0  0  0  0  0  0  0  0  0  0  0
   -3.5452   -1.1965   -1.7419 C   0  0  0  0  0  0  0  0  0  0  0  0
   -2.7499   -1.8274   -1.3119 H   0  0  0  0  0  0  0  0  0  0  0  0
   -4.4584   -1.2228    1.7169 C   0  0  0  0  0  0  0  0  0  0  0  0
   -5.5372   -0.9231    2.5702 C   0  0  0  0  0  0  0  0  0  0  0  0
   -5.8858    0.1195    2.6333 H   0  0  0  0  0  0  0  0  0  0  0  0
   -6.1338   -1.9452    3.3235 C   0  0  0  0  0  0  0  0  0  0  0  0
   -6.9776   -1.7131    3.9913 H   0  0  0  0  0  0  0  0  0  0  0  0
   -5.6512   -3.2603    3.2288 C   0  0  0  0  0  0  0  0  0  0  0  0
   -6.1185   -4.0615    3.8216 H   0  0  0  0  0  0  0  0  0  0  0  0
   -4.5676   -3.5554    2.3841 C   0  0  0  0  0  0  0  0  0  0  0  0
   -4.1828   -4.5844    2.3180 H   0  0  0  0  0  0  0  0  0  0  0  0
   -3.9665   -2.5409    1.6250 C   0  0  0  0  0  0  0  0  0  0  0  0
   -3.1075   -2.7829    0.9782 H   0  0  0  0  0  0  0  0  0  0  0  0
  1 27  1  0  0  0  0
  1  5  1  0  0  0  0
  2 27  1  0  0  0  0
  2  4  2  0  0  0  0
  2 41  1  0  0  0  0
  3  1  1  0  0  0  0
  5 14  2  0  0  0  0
  5  6  1  0  0  0  0
  6  8  2  0  0  0  0
  7  6  1  0  0  0  0
  8 10  1  0  0  0  0
  8  9  1  0  0  0  0
 10 11  1  0  0  0  0
 12 13  1  0  0  0  0
 12 10  2  0  0  0  0
 14 12  1  0  0  0  0
 15 14  1  0  0  0  0
 16 17  1  0  0  0  0
 16  1  1  0  0  0  0
 17 18  1  0  0  0  0
 19 20  1  0  0  0  0
 19 17  2  0  0  0  0
 21 19  1  0  0  0  0
 22 21  1  0  0  0  0
 23 21  2  0  0  0  0
 23 25  1  0  0  0  0
 24 23  1  0  0  0  0
 25 16  2  0  0  0  0
 26 25  1  0  0  0  0
 27 29  1  0  0  0  0
 28 27  1  0  0  0  0
 30  2  1  0  0  0  0
 31 30  1  0  0  0  0
 31 32  1  0  0  0  0
 33 31  2  0  0  0  0
 34 33  1  0  0  0  0
 35 37  2  0  0  0  0
 35 33  1  0  0  0  0
 36 35  1  0  0  0  0
 37 39  1  0  0  0  0
 38 37  1  0  0  0  0
 39 40  1  0  0  0  0
 39 30  2  0  0  0  0
 41 42  1  0  0  0  0
 42 43  1  0  0  0  0
 42 44  2  0  0  0  0
 44 45  1  0  0  0  0
 46 44  1  0  0  0  0
 46 47  1  0  0  0  0
 48 46  2  0  0  0  0
 49 48  1  0  0  0  0
 50 41  2  0  0  0  0
 50 48  1  0  0  0  0
 51 50  1  0  0  0  0
M  END
