3
 OpenBabel05122313063D

 53 56  0  0  0  0  0  0  0  0999 V2000
    0.1411    2.0958    0.0215 P   0  0  0  0  0  4  0  0  0  0  0  0
   -4.0647    1.5949    1.5319 P   0  0  0  0  0  0  0  0  0  0  0  0
    0.4173    0.7777   -0.7318 O   0  0  0  0  0  1  0  0  0  0  0  0
    1.5531    2.6021    1.0554 C   0  0  0  0  0  0  0  0  0  0  0  0
    1.9644    1.7201    2.0790 C   0  0  0  0  0  0  0  0  0  0  0  0
    1.4315    0.7689    2.2374 H   0  0  0  0  0  0  0  0  0  0  0  0
    3.0762    2.0418    2.8680 C   0  0  0  0  0  0  0  0  0  0  0  0
    3.4014    1.3460    3.6555 H   0  0  0  0  0  0  0  0  0  0  0  0
    3.7819    3.2352    2.6450 C   0  0  0  0  0  0  0  0  0  0  0  0
    4.6637    3.4758    3.2567 H   0  0  0  0  0  0  0  0  0  0  0  0
    3.3819    4.1058    1.6203 C   0  0  0  0  0  0  0  0  0  0  0  0
    3.9469    5.0307    1.4307 H   0  0  0  0  0  0  0  0  0  0  0  0
    2.2716    3.7920    0.8221 C   0  0  0  0  0  0  0  0  0  0  0  0
    1.9705    4.4695    0.0094 H   0  0  0  0  0  0  0  0  0  0  0  0
   -0.1642    3.3738   -1.2314 C   0  0  0  0  0  0  0  0  0  0  0  0
   -0.0304    3.0117   -2.5864 C   0  0  0  0  0  0  0  0  0  0  0  0
    0.2626    1.9808   -2.8413 H   0  0  0  0  0  0  0  0  0  0  0  0
   -0.2927    3.9627   -3.5841 C   0  0  0  0  0  0  0  0  0  0  0  0
   -0.1917    3.6813   -4.6431 H   0  0  0  0  0  0  0  0  0  0  0  0
   -0.6909    5.2628   -3.2349 C   0  0  0  0  0  0  0  0  0  0  0  0
   -0.8993    6.0042   -4.0213 H   0  0  0  0  0  0  0  0  0  0  0  0
   -0.8334    5.6194   -1.8832 C   0  0  0  0  0  0  0  0  0  0  0  0
   -1.1541    6.6360   -1.6103 H   0  0  0  0  0  0  0  0  0  0  0  0
   -0.5729    4.6768   -0.8784 C   0  0  0  0  0  0  0  0  0  0  0  0
   -0.6911    4.9589    0.1797 H   0  0  0  0  0  0  0  0  0  0  0  0
   -1.3170    2.0392    1.1241 C   0  0  0  0  0  0  0  0  0  0  0  0
   -1.0992    1.2334    1.8580 H   0  0  0  0  0  0  0  0  0  0  0  0
   -1.3459    3.0003    1.6821 H   0  0  0  0  0  0  0  0  0  0  0  0
   -2.6063    1.7512    0.3588 C   0  0  0  0  0  0  0  0  0  0  0  0
   -2.4779    0.8212   -0.2349 H   0  0  0  0  0  0  0  0  0  0  0  0
   -2.8421    2.5778   -0.3446 H   0  0  0  0  0  0  0  0  0  0  0  0
   -5.3893    1.0072    0.3801 C   0  0  0  0  0  0  0  0  0  0  0  0
   -5.1750    0.5580   -0.9406 C   0  0  0  0  0  0  0  0  0  0  0  0
   -4.1593    0.5018   -1.3587 H   0  0  0  0  0  0  0  0  0  0  0  0
   -6.2579    0.1413   -1.7322 C   0  0  0  0  0  0  0  0  0  0  0  0
   -6.0721   -0.2112   -2.7585 H   0  0  0  0  0  0  0  0  0  0  0  0
   -7.5635    0.1607   -1.2190 C   0  0  0  0  0  0  0  0  0  0  0  0
   -8.4086   -0.1691   -1.8426 H   0  0  0  0  0  0  0  0  0  0  0  0
   -7.7871    0.6052    0.0948 C   0  0  0  0  0  0  0  0  0  0  0  0
   -8.8084    0.6267    0.5053 H   0  0  0  0  0  0  0  0  0  0  0  0
   -6.7095    1.0333    0.8824 C   0  0  0  0  0  0  0  0  0  0  0  0
   -6.8884    1.3962    1.9077 H   0  0  0  0  0  0  0  0  0  0  0  0
   -3.5816    0.0112    2.3754 C   0  0  0  0  0  0  0  0  0  0  0  0
   -3.0920    0.1012    3.6951 C   0  0  0  0  0  0  0  0  0  0  0  0
   -3.0638    1.0837    4.1941 H   0  0  0  0  0  0  0  0  0  0  0  0
   -2.6456   -1.0457    4.3715 C   0  0  0  0  0  0  0  0  0  0  0  0
   -2.2596   -0.9614    5.3992 H   0  0  0  0  0  0  0  0  0  0  0  0
   -2.6991   -2.2963    3.7384 C   0  0  0  0  0  0  0  0  0  0  0  0
   -2.3482   -3.1969    4.2651 H   0  0  0  0  0  0  0  0  0  0  0  0
   -3.1937   -2.3949    2.4275 C   0  0  0  0  0  0  0  0  0  0  0  0
   -3.2213   -3.3709    1.9192 H   0  0  0  0  0  0  0  0  0  0  0  0
   -3.6327   -1.2503    1.7479 C   0  0  0  0  0  0  0  0  0  0  0  0
   -3.9939   -1.3371    0.7130 H   0  0  0  0  0  0  0  0  0  0  0  0
  1  4  1  0  0  0  0
  1 26  1  0  0  0  0
  2 43  1  0  0  0  0
  3  1  1  0  0  0  0
  4  5  1  0  0  0  0
  5  6  1  0  0  0  0
  5  7  2  0  0  0  0
  7  8  1  0  0  0  0
  9  7  1  0  0  0  0
  9 10  1  0  0  0  0
 11  9  2  0  0  0  0
 12 11  1  0  0  0  0
 13  4  2  0  0  0  0
 13 11  1  0  0  0  0
 14 13  1  0  0  0  0
 15 24  1  0  0  0  0
 15  1  1  0  0  0  0
 16 15  2  0  0  0  0
 17 16  1  0  0  0  0
 18 20  2  0  0  0  0
 18 16  1  0  0  0  0
 19 18  1  0  0  0  0
 20 22  1  0  0  0  0
 21 20  1  0  0  0  0
 22 23  1  0  0  0  0
 22 24  2  0  0  0  0
 24 25  1  0  0  0  0
 26 28  1  0  0  0  0
 26 27  1  0  0  0  0
 29 26  1  0  0  0  0
 29  2  1  0  0  0  0
 30 29  1  0  0  0  0
 31 29  1  0  0  0  0
 32 41  1  0  0  0  0
 32  2  1  0  0  0  0
 33 32  2  0  0  0  0
 34 33  1  0  0  0  0
 35 37  2  0  0  0  0
 35 33  1  0  0  0  0
 36 35  1  0  0  0  0
 37 39  1  0  0  0  0
 38 37  1  0  0  0  0
 39 40  1  0  0  0  0
 39 41  2  0  0  0  0
 41 42  1  0  0  0  0
 43 44  1  0  0  0  0
 44 45  1  0  0  0  0
 44 46  2  0  0  0  0
 46 47  1  0  0  0  0
 48 49  1  0  0  0  0
 48 46  1  0  0  0  0
 50 48  2  0  0  0  0
 51 50  1  0  0  0  0
 52 43  2  0  0  0  0
 52 50  1  0  0  0  0
 53 52  1  0  0  0  0
M  END
