3
 OpenBabel05122313063D

 59 62  0  0  1  0  0  0  0  0999 V2000
   -0.8782    0.9644    0.3894 P   0  0  0  0  0  0  0  0  0  0  0  0
    1.6927   -0.1112   -0.5483 P   0  0  0  0  0  4  0  0  0  0  0  0
    0.6515   -1.2703   -0.7527 O   0  0  0  0  0  1  0  0  0  0  0  0
    0.7359    1.4747   -0.4219 C   0  0  2  0  0  0  0  0  0  0  0  0
    1.3896    2.7448    0.1274 C   0  0  0  0  0  0  0  0  0  0  0  0
    2.5787    3.2581   -0.6953 C   0  0  0  0  0  0  0  0  0  0  0  0
    3.1426    4.5681   -0.1470 C   0  0  0  0  0  0  0  0  0  0  0  0
   -2.0622    2.3342    0.1603 C   0  0  0  0  0  0  0  0  0  0  0  0
   -3.0951    2.5018    1.1107 C   0  0  0  0  0  0  0  0  0  0  0  0
   -4.1038    3.4513    0.8947 C   0  0  0  0  0  0  0  0  0  0  0  0
   -4.0921    4.2391   -0.2680 C   0  0  0  0  0  0  0  0  0  0  0  0
   -3.0697    4.0730   -1.2150 C   0  0  0  0  0  0  0  0  0  0  0  0
   -2.0592    3.1220   -1.0099 C   0  0  0  0  0  0  0  0  0  0  0  0
   -0.4635    0.9454    2.1773 C   0  0  0  0  0  0  0  0  0  0  0  0
   -0.0173   -0.2588    2.7579 C   0  0  0  0  0  0  0  0  0  0  0  0
    0.4476   -0.2795    4.0804 C   0  0  0  0  0  0  0  0  0  0  0  0
    0.4655    0.9029    4.8360 C   0  0  0  0  0  0  0  0  0  0  0  0
    0.0226    2.1071    4.2644 C   0  0  0  0  0  0  0  0  0  0  0  0
   -0.4359    2.1344    2.9392 C   0  0  0  0  0  0  0  0  0  0  0  0
    2.6666   -0.4611    0.9490 C   0  0  0  0  0  0  0  0  0  0  0  0
    2.6369   -1.7929    1.4151 C   0  0  0  0  0  0  0  0  0  0  0  0
    3.3506   -2.1492    2.5671 C   0  0  0  0  0  0  0  0  0  0  0  0
    4.0930   -1.1813    3.2629 C   0  0  0  0  0  0  0  0  0  0  0  0
    4.1397    0.1401    2.7912 C   0  0  0  0  0  0  0  0  0  0  0  0
    3.4381    0.5025    1.6319 C   0  0  0  0  0  0  0  0  0  0  0  0
    2.8298   -0.0180   -1.9534 C   0  0  0  0  0  0  0  0  0  0  0  0
    4.2282   -0.0578   -1.7713 C   0  0  0  0  0  0  0  0  0  0  0  0
    5.0736    0.0148   -2.8876 C   0  0  0  0  0  0  0  0  0  0  0  0
    4.5292    0.1198   -4.1775 C   0  0  0  0  0  0  0  0  0  0  0  0
    3.1358    0.1443   -4.3573 C   0  0  0  0  0  0  0  0  0  0  0  0
    2.2790    0.0715   -3.2511 C   0  0  0  0  0  0  0  0  0  0  0  0
    0.4272    1.6105   -1.4843 H   0  0  0  0  0  0  0  0  0  0  0  0
    0.6059    3.5338    0.1472 H   0  0  0  0  0  0  0  0  0  0  0  0
    1.6812    2.5973    1.1878 H   0  0  0  0  0  0  0  0  0  0  0  0
    3.3806    2.4890   -0.7303 H   0  0  0  0  0  0  0  0  0  0  0  0
    2.2608    3.3868   -1.7525 H   0  0  0  0  0  0  0  0  0  0  0  0
    2.3736    5.3677   -0.1400 H   0  0  0  0  0  0  0  0  0  0  0  0
    3.5036    4.4488    0.8961 H   0  0  0  0  0  0  0  0  0  0  0  0
    3.9946    4.9281   -0.7560 H   0  0  0  0  0  0  0  0  0  0  0  0
   -3.1068    1.8967    2.0303 H   0  0  0  0  0  0  0  0  0  0  0  0
   -4.9010    3.5789    1.6421 H   0  0  0  0  0  0  0  0  0  0  0  0
   -4.8826    4.9856   -0.4354 H   0  0  0  0  0  0  0  0  0  0  0  0
   -3.0586    4.6857   -2.1286 H   0  0  0  0  0  0  0  0  0  0  0  0
   -1.2862    2.9787   -1.7767 H   0  0  0  0  0  0  0  0  0  0  0  0
   -0.0147   -1.1765    2.1541 H   0  0  0  0  0  0  0  0  0  0  0  0
    0.8033   -1.2236    4.5185 H   0  0  0  0  0  0  0  0  0  0  0  0
    0.8259    0.8877    5.8754 H   0  0  0  0  0  0  0  0  0  0  0  0
    0.0359    3.0359    4.8541 H   0  0  0  0  0  0  0  0  0  0  0  0
   -0.7740    3.0836    2.4983 H   0  0  0  0  0  0  0  0  0  0  0  0
    2.0439   -2.5400    0.8685 H   0  0  0  0  0  0  0  0  0  0  0  0
    3.3275   -3.1899    2.9237 H   0  0  0  0  0  0  0  0  0  0  0  0
    4.6477   -1.4600    4.1713 H   0  0  0  0  0  0  0  0  0  0  0  0
    4.7315    0.8971    3.3266 H   0  0  0  0  0  0  0  0  0  0  0  0
    3.5057    1.5354    1.2662 H   0  0  0  0  0  0  0  0  0  0  0  0
    4.6568   -0.1489   -0.7624 H   0  0  0  0  0  0  0  0  0  0  0  0
    6.1643   -0.0167   -2.7483 H   0  0  0  0  0  0  0  0  0  0  0  0
    5.1964    0.1752   -5.0508 H   0  0  0  0  0  0  0  0  0  0  0  0
    2.7107    0.2140   -5.3696 H   0  0  0  0  0  0  0  0  0  0  0  0
    1.1846    0.0726   -3.3869 H   0  0  0  0  0  0  0  0  0  0  0  0
  1 14  1  0  0  0  0
  2  4  1  0  0  0  0
  2 20  1  0  0  0  0
  3  2  1  0  0  0  0
  4 32  1  6  0  0  0
  4  5  1  0  0  0  0
  4  1  1  0  0  0  0
  5 33  1  0  0  0  0
  5 34  1  0  0  0  0
  6  7  1  0  0  0  0
  6  5  1  0  0  0  0
  7 37  1  0  0  0  0
  7 38  1  0  0  0  0
  8  1  1  0  0  0  0
  8  9  1  0  0  0  0
  9 40  1  0  0  0  0
 10  9  2  0  0  0  0
 10 41  1  0  0  0  0
 11 10  1  0  0  0  0
 12 13  1  0  0  0  0
 12 11  2  0  0  0  0
 13  8  2  0  0  0  0
 14 15  2  0  0  0  0
 14 19  1  0  0  0  0
 15 16  1  0  0  0  0
 16 46  1  0  0  0  0
 16 17  2  0  0  0  0
 17 47  1  0  0  0  0
 18 17  1  0  0  0  0
 18 48  1  0  0  0  0
 19 18  2  0  0  0  0
 20 21  2  0  0  0  0
 20 25  1  0  0  0  0
 21 22  1  0  0  0  0
 22 51  1  0  0  0  0
 22 23  2  0  0  0  0
 23 52  1  0  0  0  0
 24 23  1  0  0  0  0
 24 53  1  0  0  0  0
 25 24  2  0  0  0  0
 26 27  1  0  0  0  0
 26  2  1  0  0  0  0
 27 55  1  0  0  0  0
 28 56  1  0  0  0  0
 28 27  2  0  0  0  0
 29 28  1  0  0  0  0
 30 29  2  0  0  0  0
 30 31  1  0  0  0  0
 31 26  2  0  0  0  0
 35  6  1  0  0  0  0
 36  6  1  0  0  0  0
 39  7  1  0  0  0  0
 42 11  1  0  0  0  0
 43 12  1  0  0  0  0
 44 13  1  0  0  0  0
 45 15  1  0  0  0  0
 49 19  1  0  0  0  0
 50 21  1  0  0  0  0
 54 25  1  0  0  0  0
 57 29  1  0  0  0  0
 58 30  1  0  0  0  0
 59 31  1  0  0  0  0
M  END
