3
 OpenBabel05122313063D

  8  7  0  0  0  0  0  0  0  0999 V2000
   -1.5740    2.0877    0.8589 O   0  0  0  0  0  0  0  0  0  0  0  0
   -1.7626    2.2915   -1.4145 O   0  0  0  0  0  0  0  0  0  0  0  0
   -0.7672    1.2459   -1.6448 O   0  0  0  0  0  1  0  0  0  0  0  0
   -2.0368    2.6313   -0.1422 C   0  0  0  0  0  0  0  0  0  0  0  0
   -3.0143    3.7783   -0.1213 C   0  0  0  0  0  0  0  0  0  0  0  0
   -2.5295    4.6450    0.3706 H   0  0  0  0  0  0  0  0  0  0  0  0
   -3.8873    3.4930    0.4976 H   0  0  0  0  0  0  0  0  0  0  0  0
   -3.3449    4.0664   -1.1346 H   0  0  0  0  0  0  0  0  0  0  0  0
  2  4  1  0  0  0  0
  3  2  1  0  0  0  0
  4  5  1  0  0  0  0
  4  1  2  0  0  0  0
  5  6  1  0  0  0  0
  5  7  1  0  0  0  0
  8  5  1  0  0  0  0
M  END
