17
 OpenBabel05122313063D

 31 32  0  0  1  0  0  0  0  0999 V2000
    0.5314    0.2074    2.6386 C   0  0  2  0  0  3  0  0  0  0  0  0
    0.6526    0.3951    4.1226 C   0  0  0  0  0  0  0  0  0  0  0  0
   -1.6229    1.6454   -0.0573 C   0  0  0  0  0  0  0  0  0  0  0  0
   -1.0224    2.8208    0.4506 C   0  0  0  0  0  0  0  0  0  0  0  0
   -1.6086    4.0722    0.2209 C   0  0  0  0  0  0  0  0  0  0  0  0
   -2.7952    4.1659   -0.5266 C   0  0  0  0  0  0  0  0  0  0  0  0
   -3.3993    3.0031   -1.0258 C   0  0  0  0  0  0  0  0  0  0  0  0
   -2.8229    1.7445   -0.7882 C   0  0  0  0  0  0  0  0  0  0  0  0
   -2.0360   -1.2342   -0.0021 C   0  0  0  0  0  0  0  0  0  0  0  0
   -2.5572   -2.0292    1.0373 C   0  0  0  0  0  0  0  0  0  0  0  0
   -3.4936   -3.0349    0.7507 C   0  0  0  0  0  0  0  0  0  0  0  0
   -3.9115   -3.2564   -0.5698 C   0  0  0  0  0  0  0  0  0  0  0  0
   -3.3832   -2.4772   -1.6122 C   0  0  0  0  0  0  0  0  0  0  0  0
   -2.4430   -1.4754   -1.3342 C   0  0  0  0  0  0  0  0  0  0  0  0
   -0.6930    0.1488    2.0635 N   0  0  0  0  0  0  0  0  0  0  0  0
   -0.7659    0.0475    0.2916 P   0  0  0  0  0  0  0  0  0  0  0  0
    1.5689    0.0972    1.9314 O   0  0  0  0  0  1  0  0  0  0  0  0
   -0.3104    0.6289    4.6111 H   0  0  0  0  0  0  0  0  0  0  0  0
    1.3815    1.2023    4.3287 H   0  0  0  0  0  0  0  0  0  0  0  0
    1.0668   -0.5330    4.5665 H   0  0  0  0  0  0  0  0  0  0  0  0
   -0.0936    2.7561    1.0396 H   0  0  0  0  0  0  0  0  0  0  0  0
   -1.1389    4.9799    0.6282 H   0  0  0  0  0  0  0  0  0  0  0  0
   -3.2532    5.1488   -0.7116 H   0  0  0  0  0  0  0  0  0  0  0  0
   -4.3359    3.0698   -1.5990 H   0  0  0  0  0  0  0  0  0  0  0  0
   -3.3249    0.8417   -1.1626 H   0  0  0  0  0  0  0  0  0  0  0  0
   -2.2282   -1.8771    2.0758 H   0  0  0  0  0  0  0  0  0  0  0  0
   -3.8962   -3.6509    1.5684 H   0  0  0  0  0  0  0  0  0  0  0  0
   -4.6455   -4.0454   -0.7902 H   0  0  0  0  0  0  0  0  0  0  0  0
   -3.6984   -2.6560   -2.6508 H   0  0  0  0  0  0  0  0  0  0  0  0
   -2.0164   -0.8860   -2.1613 H   0  0  0  0  0  0  0  0  0  0  0  0
   -1.5245    0.3401    2.6319 H   0  0  0  0  0  0  0  0  0  0  0  0
  1 17  1  1  0  0  0
  1  2  1  0  0  0  0
  2 19  1  0  0  0  0
  2 20  1  0  0  0  0
  2 18  1  0  0  0  0
  3 16  1  0  0  0  0
  3  4  1  0  0  0  0
  4 21  1  0  0  0  0
  5  4  2  0  0  0  0
  5 22  1  0  0  0  0
  6  5  1  0  0  0  0
  7  8  1  0  0  0  0
  7  6  2  0  0  0  0
  8  3  2  0  0  0  0
  9 16  1  0  0  0  0
  9 10  1  0  0  0  0
 10 26  1  0  0  0  0
 11 10  2  0  0  0  0
 11 27  1  0  0  0  0
 12 11  1  0  0  0  0
 13 14  1  0  0  0  0
 13 12  2  0  0  0  0
 14  9  2  0  0  0  0
 15 31  1  0  0  0  0
 15  1  1  0  0  0  0
 16 15  1  0  0  0  0
 23  6  1  0  0  0  0
 24  7  1  0  0  0  0
 25  8  1  0  0  0  0
 28 12  1  0  0  0  0
 29 13  1  0  0  0  0
 30 14  1  0  0  0  0
M  END
