1
 OpenBabel05122313063D

 34 35  0  0  0  0  0  0  0  0999 V2000
   -0.6619    0.6054   -0.5119 O   0  5  0  0  0  0  0  0  0  0  0  0
   -3.1122    1.6953   -0.5031 O   0  0  0  0  0  0  0  0  0  0  0  0
    6.6536    0.6190    0.0934 O   0  0  0  0  0  0  0  0  0  0  0  0
    1.8604    0.7860   -0.1480 N   0  0  0  0  0  4  0  0  0  0  0  0
   -0.7868    1.8551   -0.2251 C   0  0  0  0  0  0  0  0  0  0  0  0
   -2.0812    2.5109   -0.1925 C   0  0  0  0  0  0  0  0  0  0  0  0
   -2.1782    3.8634    0.1248 C   0  0  0  0  0  0  0  0  0  0  0  0
   -1.0196    4.6418    0.4145 C   0  0  0  0  0  0  0  0  0  0  0  0
    0.2336    4.0646    0.3907 C   0  0  0  0  0  0  0  0  0  0  0  0
    0.3780    2.6728    0.0810 C   0  0  0  0  0  0  0  0  0  0  0  0
   -4.4280    2.2021   -0.4343 C   0  0  0  0  0  0  0  0  0  0  0  0
    1.6616    2.0757    0.1057 C   0  0  0  0  0  0  0  0  0  0  0  0
    3.0663    0.0639   -0.1395 C   0  0  0  0  0  0  0  0  0  0  0  0
    4.3168    0.6934   -0.0264 C   0  0  0  0  0  0  0  0  0  0  0  0
    5.4930   -0.0811   -0.0176 C   0  0  0  0  0  0  0  0  0  0  0  0
    5.4140   -1.4867   -0.1264 C   0  0  0  0  0  0  0  0  0  0  0  0
    4.1530   -2.0950   -0.2422 C   0  0  0  0  0  0  0  0  0  0  0  0
    2.9755   -1.3426   -0.2512 C   0  0  0  0  0  0  0  0  0  0  0  0
    7.8753   -0.0967    0.1017 C   0  0  0  0  0  0  0  0  0  0  0  0
    0.9403    0.2986   -0.3650 H   0  0  0  0  0  0  0  0  0  0  0  0
   -3.1635    4.3494    0.1474 H   0  0  0  0  0  0  0  0  0  0  0  0
   -1.1390    5.7078    0.6561 H   0  0  0  0  0  0  0  0  0  0  0  0
    1.1350    4.6561    0.6141 H   0  0  0  0  0  0  0  0  0  0  0  0
    7.9374   -0.8017    0.9607 H   0  0  0  0  0  0  0  0  0  0  0  0
   -5.0946    1.3632   -0.7057 H   0  0  0  0  0  0  0  0  0  0  0  0
   -4.5854    3.0400   -1.1509 H   0  0  0  0  0  0  0  0  0  0  0  0
   -4.6776    2.5549    0.5917 H   0  0  0  0  0  0  0  0  0  0  0  0
    2.5369    2.6954    0.3642 H   0  0  0  0  0  0  0  0  0  0  0  0
    4.4266    1.7839    0.0437 H   0  0  0  0  0  0  0  0  0  0  0  0
    6.3198   -2.1065   -0.1247 H   0  0  0  0  0  0  0  0  0  0  0  0
    4.0920   -3.1905   -0.3255 H   0  0  0  0  0  0  0  0  0  0  0  0
    1.9852   -1.8176   -0.3256 H   0  0  0  0  0  0  0  0  0  0  0  0
    8.6780    0.6576    0.1978 H   0  0  0  0  0  0  0  0  0  0  0  0
    8.0277   -0.6683   -0.8411 H   0  0  0  0  0  0  0  0  0  0  0  0
  1  5  1  0  0  0  0
  2 11  1  0  0  0  0
  2  6  1  0  0  0  0
  3 19  1  0  0  0  0
  4 13  1  0  0  0  0
  4 12  2  0  0  0  0
  5  6  2  0  0  0  0
  5 10  1  0  0  0  0
  6  7  1  0  0  0  0
  7 21  1  0  0  0  0
  7  8  2  0  0  0  0
  8 22  1  0  0  0  0
  9  8  1  0  0  0  0
  9 23  1  0  0  0  0
 10 12  1  0  0  0  0
 10  9  2  0  0  0  0
 11 27  1  0  0  0  0
 12 28  1  0  0  0  0
 13 14  1  0  0  0  0
 14 15  2  0  0  0  0
 14 29  1  0  0  0  0
 15  3  1  0  0  0  0
 16 30  1  0  0  0  0
 16 15  1  0  0  0  0
 17 16  2  0  0  0  0
 18 17  1  0  0  0  0
 18 13  2  0  0  0  0
 19 33  1  0  0  0  0
 19 24  1  0  0  0  0
 20  4  1  0  0  0  0
 25 11  1  0  0  0  0
 26 11  1  0  0  0  0
 31 17  1  0  0  0  0
 32 18  1  0  0  0  0
 34 19  1  0  0  0  0
M  CHG  1   1  -1
M  END
