5
 OpenBabel05122313063D

 49 52  0  0  0  0  0  0  0  0999 V2000
   -2.0352   -0.7494   -0.1041 P   0  0  0  0  0  4  0  0  0  0  0  0
    0.1563    0.8940    1.0010 P   0  0  0  0  0  0  0  0  0  0  0  0
   -1.4301    0.2123    1.1580 N   0  0  0  0  0  0  0  0  0  0  0  0
   -2.0203    0.4425    1.9643 H   0  0  0  0  0  0  0  0  0  0  0  0
   -0.9339   -0.7381   -1.2127 O   0  0  0  0  0  1  0  0  0  0  0  0
   -0.1487    2.6853    0.7744 C   0  0  0  0  0  0  0  0  0  0  0  0
   -1.3304    3.1321    0.1499 C   0  0  0  0  0  0  0  0  0  0  0  0
   -2.1158    2.4122   -0.1231 H   0  0  0  0  0  0  0  0  0  0  0  0
   -1.5062    4.4966   -0.1238 C   0  0  0  0  0  0  0  0  0  0  0  0
   -2.4350    4.8395   -0.6038 H   0  0  0  0  0  0  0  0  0  0  0  0
   -0.5034    5.4200    0.2138 C   0  0  0  0  0  0  0  0  0  0  0  0
   -0.6432    6.4896   -0.0026 H   0  0  0  0  0  0  0  0  0  0  0  0
    0.6748    4.9784    0.8391 C   0  0  0  0  0  0  0  0  0  0  0  0
    1.4561    5.7013    1.1174 H   0  0  0  0  0  0  0  0  0  0  0  0
    0.8532    3.6163    1.1245 C   0  0  0  0  0  0  0  0  0  0  0  0
    1.7668    3.2791    1.6389 H   0  0  0  0  0  0  0  0  0  0  0  0
    0.8964    0.7965    2.6665 C   0  0  0  0  0  0  0  0  0  0  0  0
    2.0678    0.0487    2.8942 C   0  0  0  0  0  0  0  0  0  0  0  0
    2.5224   -0.5095    2.0639 H   0  0  0  0  0  0  0  0  0  0  0  0
    2.6231    0.0022    4.1817 C   0  0  0  0  0  0  0  0  0  0  0  0
    3.5389   -0.5812    4.3586 H   0  0  0  0  0  0  0  0  0  0  0  0
    2.0105    0.6901    5.2406 C   0  0  0  0  0  0  0  0  0  0  0  0
    2.4475    0.6478    6.2496 H   0  0  0  0  0  0  0  0  0  0  0  0
    0.8425    1.4386    5.0150 C   0  0  0  0  0  0  0  0  0  0  0  0
    0.3669    1.9849    5.8431 H   0  0  0  0  0  0  0  0  0  0  0  0
    0.2888    1.5015    3.7295 C   0  0  0  0  0  0  0  0  0  0  0  0
   -0.6070    2.1182    3.5518 H   0  0  0  0  0  0  0  0  0  0  0  0
   -3.5131    0.0390   -0.7890 C   0  0  0  0  0  0  0  0  0  0  0  0
   -3.3935    0.7919   -1.9758 C   0  0  0  0  0  0  0  0  0  0  0  0
   -2.4285    0.8129   -2.5035 H   0  0  0  0  0  0  0  0  0  0  0  0
   -4.5052    1.4882   -2.4707 C   0  0  0  0  0  0  0  0  0  0  0  0
   -4.4190    2.0672   -3.4022 H   0  0  0  0  0  0  0  0  0  0  0  0
   -5.7293    1.4396   -1.7829 C   0  0  0  0  0  0  0  0  0  0  0  0
   -6.6003    1.9863   -2.1742 H   0  0  0  0  0  0  0  0  0  0  0  0
   -5.8492    0.6877   -0.6020 C   0  0  0  0  0  0  0  0  0  0  0  0
   -6.8114    0.6445   -0.0705 H   0  0  0  0  0  0  0  0  0  0  0  0
   -4.7451   -0.0178   -0.1032 C   0  0  0  0  0  0  0  0  0  0  0  0
   -4.8455   -0.6210    0.8127 H   0  0  0  0  0  0  0  0  0  0  0  0
   -2.5364   -2.3346    0.5871 C   0  0  0  0  0  0  0  0  0  0  0  0
   -3.4292   -3.1429   -0.1509 C   0  0  0  0  0  0  0  0  0  0  0  0
   -3.8321   -2.7930   -1.1138 H   0  0  0  0  0  0  0  0  0  0  0  0
   -3.8034   -4.3966    0.3505 C   0  0  0  0  0  0  0  0  0  0  0  0
   -4.4949   -5.0308   -0.2235 H   0  0  0  0  0  0  0  0  0  0  0  0
   -3.2988   -4.8382    1.5847 C   0  0  0  0  0  0  0  0  0  0  0  0
   -3.5989   -5.8210    1.9782 H   0  0  0  0  0  0  0  0  0  0  0  0
   -2.4123   -4.0321    2.3186 C   0  0  0  0  0  0  0  0  0  0  0  0
   -2.0153   -4.3837    3.2823 H   0  0  0  0  0  0  0  0  0  0  0  0
   -2.0214   -2.7826    1.8215 C   0  0  0  0  0  0  0  0  0  0  0  0
   -1.3000   -2.1617    2.3713 H   0  0  0  0  0  0  0  0  0  0  0  0
  1 39  1  0  0  0  0
  1  3  1  0  0  0  0
  2  3  1  0  0  0  0
  2 17  1  0  0  0  0
  3  4  1  0  0  0  0
  5  1  1  0  0  0  0
  6  2  1  0  0  0  0
  6 15  1  0  0  0  0
  7  6  2  0  0  0  0
  8  7  1  0  0  0  0
  9  7  1  0  0  0  0
  9 11  2  0  0  0  0
 10  9  1  0  0  0  0
 11 13  1  0  0  0  0
 12 11  1  0  0  0  0
 13 14  1  0  0  0  0
 13 15  2  0  0  0  0
 15 16  1  0  0  0  0
 17 18  2  0  0  0  0
 17 26  1  0  0  0  0
 18 20  1  0  0  0  0
 19 18  1  0  0  0  0
 20 21  1  0  0  0  0
 20 22  2  0  0  0  0
 22 23  1  0  0  0  0
 24 22  1  0  0  0  0
 24 25  1  0  0  0  0
 26 24  2  0  0  0  0
 27 26  1  0  0  0  0
 28  1  1  0  0  0  0
 28 37  1  0  0  0  0
 29 28  2  0  0  0  0
 30 29  1  0  0  0  0
 31 29  1  0  0  0  0
 31 33  2  0  0  0  0
 32 31  1  0  0  0  0
 33 35  1  0  0  0  0
 34 33  1  0  0  0  0
 35 37  2  0  0  0  0
 35 36  1  0  0  0  0
 37 38  1  0  0  0  0
 39 48  1  0  0  0  0
 40 42  1  0  0  0  0
 40 39  2  0  0  0  0
 41 40  1  0  0  0  0
 42 44  2  0  0  0  0
 43 42  1  0  0  0  0
 44 45  1  0  0  0  0
 44 46  1  0  0  0  0
 46 47  1  0  0  0  0
 48 46  2  0  0  0  0
 48 49  1  0  0  0  0
M  END
