12
 OpenBabel05122313063D

 18 18  0  0  0  0  0  0  0  0999 V2000
    5.2860   -1.0196    0.0301 C   0  0  0  0  0  0  0  0  0  0  0  0
    5.1865   -2.2146   -0.7161 C   0  0  0  0  0  0  0  0  0  0  0  0
    6.2663   -3.0981   -0.7880 C   0  0  0  0  0  0  0  0  0  0  0  0
    7.4544   -2.7873   -0.1099 C   0  0  0  0  0  0  0  0  0  0  0  0
    8.4974   -3.6399   -0.1787 F   0  0  0  0  0  0  0  0  0  0  0  0
    7.5725   -1.6110    0.6335 C   0  0  0  0  0  0  0  0  0  0  0  0
    6.4868   -0.7211    0.7066 C   0  0  0  0  0  0  0  0  0  0  0  0
    4.1748   -0.2275    0.0340 O   0  0  0  0  0  0  0  0  0  0  0  0
    4.2144    0.9708    0.7691 C   0  0  0  0  0  0  0  0  0  0  0  0
    2.8912    1.7238    0.6673 C   0  0  0  0  0  0  0  0  0  0  0  0
    2.8367    2.8121    1.2988 O   0  5  0  0  0  0  0  0  0  0  0  0
    1.9630    1.1984   -0.0416 O   0  0  0  0  0  0  0  0  0  0  0  0
    4.2406   -2.4278   -1.2341 H   0  0  0  0  0  0  0  0  0  0  0  0
    6.2030   -4.0320   -1.3646 H   0  0  0  0  0  0  0  0  0  0  0  0
    8.5165   -1.3952    1.1540 H   0  0  0  0  0  0  0  0  0  0  0  0
    6.5943    0.1997    1.2947 H   0  0  0  0  0  0  0  0  0  0  0  0
    5.0165    1.6576    0.4090 H   0  0  0  0  0  0  0  0  0  0  0  0
    4.4136    0.7922    1.8522 H   0  0  0  0  0  0  0  0  0  0  0  0
  1  8  1  0  0  0  0
  1  7  1  0  0  0  0
  2  1  2  0  0  0  0
  3  2  1  0  0  0  0
  3  4  2  0  0  0  0
  4  6  1  0  0  0  0
  5  4  1  0  0  0  0
  6  7  2  0  0  0  0
  6 15  1  0  0  0  0
  7 16  1  0  0  0  0
  8  9  1  0  0  0  0
  9 18  1  0  0  0  0
 10  9  1  0  0  0  0
 10 11  1  0  0  0  0
 12 10  2  0  0  0  0
 13  2  1  0  0  0  0
 14  3  1  0  0  0  0
 17  9  1  0  0  0  0
M  CHG  1  11  -1
M  END
