5
 OpenBabel05122313063D

 16 16  0  0  0  0  0  0  0  0999 V2000
   -5.6956   -4.3887   -0.9066 Cl  0  0  0  0  0  0  0  0  0  0  0  0
   -3.0360    0.5547    1.6532 F   0  0  0  0  0  0  0  0  0  0  0  0
   -4.2426    1.3707    0.0223 F   0  0  0  0  0  0  0  0  0  0  0  0
   -5.1578    0.0978    1.5317 F   0  0  0  0  0  0  0  0  0  0  0  0
   -0.5190   -0.3119   -1.6602 O   0  0  0  0  0  1  0  0  0  0  0  0
   -1.6172    0.0054   -0.8932 N   0  0  0  0  0  2  0  0  0  0  0  0
   -2.5638   -1.0403   -0.8675 C   0  0  0  0  0  0  0  0  0  0  0  0
   -3.7433   -0.9525   -0.0667 C   0  0  0  0  0  0  0  0  0  0  0  0
   -4.6899   -1.9878   -0.0842 C   0  0  0  0  0  0  0  0  0  0  0  0
   -4.5006   -3.1128   -0.8989 C   0  0  0  0  0  0  0  0  0  0  0  0
   -3.3636   -3.2048   -1.7172 C   0  0  0  0  0  0  0  0  0  0  0  0
   -2.4186   -2.1786   -1.7016 C   0  0  0  0  0  0  0  0  0  0  0  0
   -4.0363    0.2566    0.7855 C   0  0  0  0  0  0  0  0  0  0  0  0
   -5.5879   -1.9137    0.5416 H   0  0  0  0  0  0  0  0  0  0  0  0
   -3.2284   -4.0831   -2.3651 H   0  0  0  0  0  0  0  0  0  0  0  0
   -1.5252   -2.2216   -2.3376 H   0  0  0  0  0  0  0  0  0  0  0  0
  1 10  1  0  0  0  0
  3 13  1  0  0  0  0
  5  6  1  0  0  0  0
  6  7  1  0  0  0  0
  7  8  1  0  0  0  0
  8 13  1  0  0  0  0
  9  8  2  0  0  0  0
  9 14  1  0  0  0  0
 10  9  1  0  0  0  0
 11 12  1  0  0  0  0
 11 10  2  0  0  0  0
 12  7  2  0  0  0  0
 13  4  1  0  0  0  0
 13  2  1  0  0  0  0
 15 11  1  0  0  0  0
 16 12  1  0  0  0  0
M  END
