2
 OpenBabel05122313063D

 29 28  0  0  0  0  0  0  0  0999 V2000
   -0.3709    1.5629    0.1621 P   0  0  2  0  0  0  0  0  0  0  0  0
    2.0046    0.5219   -0.8700 O   0  5  0  0  0  0  0  0  0  0  0  0
    2.9684    2.4337   -1.6171 O   0  0  0  0  0  0  0  0  0  0  0  0
   -2.8500   -0.5592   -2.1938 O   0  0  0  0  0  0  0  0  0  0  0  0
   -3.0931   -0.1190    0.0201 O   0  0  0  0  0  0  0  0  0  0  0  0
    1.9469    1.8124   -0.9743 C   0  0  0  0  0  0  0  0  0  0  0  0
    0.9000    2.5884   -0.4755 C   0  0  0  0  0  0  0  0  0  0  0  0
   -1.0442    0.4828   -1.1143 C   0  0  0  0  0  3  0  0  0  0  0  0
   -2.3933   -0.0640   -0.9941 C   0  0  0  0  0  0  0  0  0  0  0  0
   -4.1772   -1.0860   -2.1665 C   0  0  0  0  0  0  0  0  0  0  0  0
   -1.6101    2.4873    1.1798 C   0  0  0  0  0  0  0  0  0  0  0  0
   -2.3267    3.5448    0.3312 C   0  0  0  0  0  0  0  0  0  0  0  0
   -0.9351    3.0698    2.4255 C   0  0  0  0  0  0  0  0  0  0  0  0
    4.0403    1.6131   -2.0696 C   0  0  0  0  0  0  0  0  0  0  0  0
    0.8537    3.6757   -0.6053 H   0  0  0  0  0  0  0  0  0  0  0  0
   -0.6923    0.6639   -2.1436 H   0  0  0  0  0  0  0  0  0  0  0  0
   -4.4279   -1.3435   -3.2118 H   0  0  0  0  0  0  0  0  0  0  0  0
   -4.8962   -0.3421   -1.7673 H   0  0  0  0  0  0  0  0  0  0  0  0
   -4.2388   -1.9927   -1.5284 H   0  0  0  0  0  0  0  0  0  0  0  0
   -2.3380    1.6977    1.4599 H   0  0  0  0  0  0  0  0  0  0  0  0
   -2.8194    3.0896   -0.5503 H   0  0  0  0  0  0  0  0  0  0  0  0
   -1.6243    4.3241   -0.0294 H   0  0  0  0  0  0  0  0  0  0  0  0
   -3.1085    4.0514    0.9352 H   0  0  0  0  0  0  0  0  0  0  0  0
   -0.4460    2.2823    3.0327 H   0  0  0  0  0  0  0  0  0  0  0  0
   -1.6844    3.5812    3.0647 H   0  0  0  0  0  0  0  0  0  0  0  0
   -0.1568    3.8112    2.1516 H   0  0  0  0  0  0  0  0  0  0  0  0
    4.7450    2.2923   -2.5844 H   0  0  0  0  0  0  0  0  0  0  0  0
    3.6903    0.8297   -2.7735 H   0  0  0  0  0  0  0  0  0  0  0  0
    4.5588    1.1121   -1.2242 H   0  0  0  0  0  0  0  0  0  0  0  0
  1  8  1  6  0  0  0
  1 11  1  0  0  0  0
  3  6  1  0  0  0  0
  4 10  1  0  0  0  0
  4  9  1  0  0  0  0
  6  2  1  0  0  0  0
  6  7  2  0  0  0  0
  7  1  1  0  0  0  0
  8  9  1  0  0  0  0
  9  5  2  0  0  0  0
 10 18  1  0  0  0  0
 10 19  1  0  0  0  0
 11 20  1  0  0  0  0
 11 13  1  0  0  0  0
 12 23  1  0  0  0  0
 12 11  1  0  0  0  0
 13 24  1  0  0  0  0
 13 25  1  0  0  0  0
 14  3  1  0  0  0  0
 14 29  1  0  0  0  0
 15  7  1  0  0  0  0
 16  8  1  0  0  0  0
 17 10  1  0  0  0  0
 21 12  1  0  0  0  0
 22 12  1  0  0  0  0
 26 13  1  0  0  0  0
 27 14  1  0  0  0  0
 28 14  1  0  0  0  0
M  CHG  1   2  -1
M  END
