17
q = -1.0, confidence = 0.0

 23 24  0  0  0  0  0  0  0  0999 V2000
   -1.0839    2.8178    0.2445 C   0  0  0  0  0  0  0  0  0  0  0  0
   -0.7063    4.1505    0.1461 C   0  0  0  0  0  0  0  0  0  0  0  0
    0.3621    4.3966    0.2176 H   0  0  0  0  0  0  0  0  0  0  0  0
   -1.6904    5.1521   -0.0531 C   0  0  0  0  0  0  0  0  0  0  0  0
   -1.3812    6.2061   -0.1265 H   0  0  0  0  0  0  0  0  0  0  0  0
   -2.4571    2.4244    0.1606 C   0  0  0  0  0  0  0  0  0  0  0  0
   -2.9093    1.0781    0.2946 C   0  0  0  0  0  0  0  0  0  0  0  0
   -2.1688    0.3006    0.5193 H   0  0  0  0  0  0  0  0  0  0  0  0
   -4.2482    0.7580    0.1791 C   0  0  0  0  0  0  0  0  0  0  0  0
   -4.5761   -0.2849    0.2994 H   0  0  0  0  0  0  0  0  0  0  0  0
   -5.2362    1.7586   -0.0836 C   0  0  0  0  0  0  0  0  0  0  0  0
   -4.8202    3.0879   -0.1922 C   0  0  0  0  0  0  0  0  0  0  0  0
   -5.5604    3.8830   -0.3781 H   0  0  0  0  0  0  0  0  0  0  0  0
   -3.4503    3.4500   -0.0670 C   0  0  0  0  0  0  0  0  0  0  0  0
   -3.0287    4.8105   -0.1674 C   0  0  0  0  0  0  0  0  0  0  0  0
   -3.7909    5.5875   -0.3362 H   0  0  0  0  0  0  0  0  0  0  0  0
    0.1903    0.8144   -0.9299 O   0  0  0  0  0  1  0  0  0  0  0  0
    1.5118    2.3882    0.5370 O   0  0  0  0  0  1  0  0  0  0  0  0
   -0.0708    0.7029    1.5549 O   0  0  0  0  0  1  0  0  0  0  0  0
    0.2474    1.5963    0.3762 S   0  0  0  0  0  0  0  0  0  0  0  0
   -6.5728    1.3856   -0.1631 N   0  0  0  0  0  0  0  0  0  0  0  0
   -7.1984    2.0464   -0.6252 H   0  0  0  0  0  0  0  0  0  0  0  0
   -6.7444    0.4166   -0.4354 H   0  0  0  0  0  0  0  0  0  0  0  0
  1 20  1  0  0  0  0
  2  3  1  0  0  0  0
  2  1  2  0  0  0  0
  4  2  1  0  0  0  0
  5  4  1  0  0  0  0
  6  1  1  0  0  0  0
  6  7  1  0  0  0  0
  7  8  1  0  0  0  0
  9  7  2  0  0  0  0
  9 10  1  0  0  0  0
 11  9  1  0  0  0  0
 12 11  2  0  0  0  0
 12 14  1  0  0  0  0
 13 12  1  0  0  0  0
 14  6  2  0  0  0  0
 15 14  1  0  0  0  0
 15  4  2  0  0  0  0
 16 15  1  0  0  0  0
 17 20  1  0  0  0  0
 20 18  1  0  0  0  0
 20 19  1  0  0  0  0
 21 11  1  0  0  0  0
 22 21  1  0  0  0  0
 23 21  1  0  0  0  0
M  END
