18
q = -1.0, confidence = 0.016

 18 18  0  0  0  0  0  0  0  0999 V2000
    2.9739   -0.3416   -0.0017 C   0  0  0  0  0  0  0  0  0  0  0  0
    3.9647    0.6788   -0.0023 C   0  0  0  0  0  0  0  0  0  0  0  0
    5.3368    0.3805   -0.0079 C   0  0  0  0  0  0  0  0  0  0  0  0
    6.0617    1.2065   -0.0080 H   0  0  0  0  0  0  0  0  0  0  0  0
    5.7602   -0.9539   -0.0132 C   0  0  0  0  0  0  0  0  0  0  0  0
    6.8362   -1.1840   -0.0175 H   0  0  0  0  0  0  0  0  0  0  0  0
    4.8076   -1.9880   -0.0127 C   0  0  0  0  0  0  0  0  0  0  0  0
    5.1309   -3.0395   -0.0166 H   0  0  0  0  0  0  0  0  0  0  0  0
    3.4461   -1.6791   -0.0071 C   0  0  0  0  0  0  0  0  0  0  0  0
    2.7070   -2.4935   -0.0063 H   0  0  0  0  0  0  0  0  0  0  0  0
    1.5476   -0.0166    0.0042 C   0  0  0  0  0  0  0  0  0  0  0  0
    1.2796    1.0523    0.0116 H   0  0  0  0  0  0  0  0  0  0  0  0
    0.5092   -0.8878    0.0015 C   0  0  0  0  0  0  0  0  0  0  0  0
    0.6405   -1.9809   -0.0059 H   0  0  0  0  0  0  0  0  0  0  0  0
   -0.9022   -0.3990    0.0079 C   0  0  0  0  0  0  0  0  0  0  0  0
    3.5072    2.3678    0.0038 Cl  0  0  0  0  0  0  0  0  0  0  0  0
   -1.1709    0.8240    0.0175 O   0  5  0  0  0  0  0  0  0  0  0  0
   -1.7982   -1.3465    0.0024 O   0  0  0  0  0  0  0  0  0  0  0  0
  1 11  1  0  0  0  0
  2  1  1  0  0  0  0
  2 16  1  0  0  0  0
  3  2  2  0  0  0  0
  4  3  1  0  0  0  0
  5  7  2  0  0  0  0
  5  3  1  0  0  0  0
  6  5  1  0  0  0  0
  7  9  1  0  0  0  0
  8  7  1  0  0  0  0
  9 10  1  0  0  0  0
  9  1  2  0  0  0  0
 11 12  1  0  0  0  0
 13 11  2  0  0  0  0
 13 15  1  0  0  0  0
 14 13  1  0  0  0  0
 15 17  1  0  0  0  0
 18 15  2  0  0  0  0
M  CHG  1  17  -1
M  END
