1
q = 0.0, confidence = 0.752

 24 29  0  0  1  0  0  0  0  0999 V2000
    2.5321   -1.2006   -0.0006 O   0  5  0  0  0  0  0  0  0  0  0  0
    2.0273   -3.3863   -0.0009 O   0  0  0  0  0  0  0  0  0  0  0  0
    0.2175   -1.7606   -0.0003 C   0  0  2  0  0  0  0  0  0  0  0  0
    1.6810   -2.2121   -0.0006 C   0  0  0  0  0  0  0  0  0  0  0  0
    0.0865   -0.0643   -0.0005 B   0  0  1  0  0  0  0  0  0  0  0  0
   -0.3251   -1.0030    1.4444 B   0  0  0  0  0  0  0  0  0  0  0  0
    0.4101   -0.9847    2.4049 H   0  0  0  0  0  0  0  0  0  0  0  0
   -1.0074   -2.5578    0.8885 B   0  0  2  0  0  0  0  0  0  0  0  0
   -0.7361   -3.5681    1.4929 H   0  0  0  0  0  0  0  0  0  0  0  0
   -1.0078   -2.5579   -0.8884 B   0  0  1  0  0  0  0  0  0  0  0  0
   -0.7367   -3.5684   -1.4927 H   0  0  0  0  0  0  0  0  0  0  0  0
   -0.3257   -1.0033   -1.4449 B   0  0  2  0  0  0  0  0  0  0  0  0
    0.4091   -0.9852   -2.4056 H   0  0  0  0  0  0  0  0  0  0  0  0
   -1.3882    0.3160   -0.8991 B   0  0  1  0  0  0  0  0  0  0  0  0
   -1.5174    1.3359   -1.5463 H   0  0  0  0  0  0  0  0  0  0  0  0
   -1.3878    0.3162    0.8988 B   0  0  2  0  0  0  0  0  0  0  0  0
   -1.5167    1.3363    1.5458 H   0  0  0  0  0  0  0  0  0  0  0  0
   -2.0812   -1.2465    1.4509 B   0  0  0  0  0  0  0  0  0  0  0  0
   -2.6998   -1.3350    2.4905 H   0  0  0  0  0  0  0  0  0  0  0  0
   -2.5098   -2.2074    0.0003 B   0  0  0  0  0  0  0  0  0  0  0  0
   -3.4457   -2.9785    0.0006 H   0  0  0  0  0  0  0  0  0  0  0  0
   -2.0819   -1.2468   -1.4506 B   0  0  0  0  0  0  0  0  0  0  0  0
   -2.7009   -1.3355   -2.4899 H   0  0  0  0  0  0  0  0  0  0  0  0
   -2.7320   -0.4332    0.0002 B   0  0  2  0  0  0  0  0  0  0  0  0
  2  4  2  0  0  0  0
  3  4  1  6  0  0  0
  3  8  1  0  0  0  0
  4  1  1  0  0  0  0
  5  3  1  1  0  0  0
  5 16  1  0  0  0  0
  6 18  1  0  0  0  0
  6  7  1  0  0  0  0
  8  9  1  1  0  0  0
 10 11  1  6  0  0  0
 10  3  1  0  0  0  0
 10 20  1  0  0  0  0
 10  8  1  0  0  0  0
 12 13  1  6  0  0  0
 12 14  1  0  0  0  0
 12  5  1  0  0  0  0
 14 15  1  6  0  0  0
 14  5  1  0  0  0  0
 14 24  1  0  0  0  0
 16  6  1  0  0  0  0
 16 17  1  1  0  0  0
 18 19  1  0  0  0  0
 20 21  1  0  0  0  0
 20  8  1  0  0  0  0
 22 12  1  0  0  0  0
 23 22  1  0  0  0  0
 24 22  1  1  0  0  0
 24 16  1  0  0  0  0
 24 18  1  0  0  0  0
M  CHG  1   1  -1
M  END
