1
q = 0.0, confidence = 0.998

 20 20  0  0  1  0  0  0  0  0999 V2000
    1.2150    1.6502   -0.3661 O   0  0  0  0  0  1  0  0  0  0  0  0
    3.2697    0.3833   -2.2482 O   0  0  0  0  0  0  0  0  0  0  0  0
    4.2059    0.9879   -0.2202 N   0  0  0  0  0  0  0  0  0  0  0  0
    1.8260    2.1828    1.7567 N   0  0  0  0  0  0  0  0  0  0  0  0
    4.0779    0.1909   -1.3375 C   0  0  0  0  0  0  0  0  0  0  0  0
    5.1358   -0.9006   -1.2462 C   0  0  0  0  0  0  0  0  0  0  0  0
    5.6124   -0.8659    0.2127 C   0  0  0  0  0  0  0  0  0  0  0  0
    5.2216    0.5387    0.7292 C   0  0  0  0  0  0  0  0  0  0  0  0
    3.5005    2.2501   -0.0814 C   0  0  0  0  0  0  0  0  0  0  0  0
    2.0846    2.0220    0.4494 C   0  0  1  0  0  3  0  0  0  0  0  0
    2.5712    2.3518    2.4310 H   0  0  0  0  0  0  0  0  0  0  0  0
    0.9032    1.8494    2.0891 H   0  0  0  0  0  0  0  0  0  0  0  0
    5.9320   -0.6465   -1.9798 H   0  0  0  0  0  0  0  0  0  0  0  0
    4.6988   -1.8699   -1.5485 H   0  0  0  0  0  0  0  0  0  0  0  0
    5.0613   -1.6240    0.8012 H   0  0  0  0  0  0  0  0  0  0  0  0
    6.6960   -1.0551    0.3274 H   0  0  0  0  0  0  0  0  0  0  0  0
    4.8016    0.4862    1.7560 H   0  0  0  0  0  0  0  0  0  0  0  0
    6.0775    1.2538    0.7390 H   0  0  0  0  0  0  0  0  0  0  0  0
    3.3794    2.6979   -1.0888 H   0  0  0  0  0  0  0  0  0  0  0  0
    4.0953    2.9304    0.5611 H   0  0  0  0  0  0  0  0  0  0  0  0
  2  5  2  0  0  0  0
  3  9  1  0  0  0  0
  3  8  1  0  0  0  0
  4 12  1  0  0  0  0
  4 11  1  0  0  0  0
  5  6  1  0  0  0  0
  5  3  1  0  0  0  0
  6  7  1  0  0  0  0
  7 16  1  0  0  0  0
  7  8  1  0  0  0  0
  7 15  1  0  0  0  0
  8 18  1  0  0  0  0
  8 17  1  0  0  0  0
  9 10  1  0  0  0  0
  9 20  1  0  0  0  0
 10  1  1  1  0  0  0
 10  4  1  0  0  0  0
 13  6  1  0  0  0  0
 14  6  1  0  0  0  0
 19  9  1  0  0  0  0
M  END
