2
q = 0.0, confidence = 1.0

 42 44  0  0  1  0  0  0  0  0999 V2000
   -1.1513    0.1400    0.1505 P   0  0  1  0  0  0  0  0  0  0  0  0
    1.5255    1.6923    0.2002 O   0  0  0  0  0  1  0  0  0  0  0  0
    1.3098    3.6459   -0.8819 N   0  0  0  0  0  0  0  0  0  0  0  0
   -1.5796    1.8196   -0.5778 C   0  0  2  0  0  0  0  0  0  0  0  0
   -1.3751    1.9311   -1.6561 H   0  0  0  0  0  0  0  0  0  0  0  0
   -0.6653    2.7222    0.3455 C   0  0  1  0  0  0  0  0  0  0  0  0
   -1.0607    3.7503    0.2821 H   0  0  0  0  0  0  0  0  0  0  0  0
   -0.8514    2.1622    1.7929 C   0  0  0  0  0  0  0  0  0  0  0  0
    0.1154    1.8124    2.2039 H   0  0  0  0  0  0  0  0  0  0  0  0
   -1.2526    2.9394    2.4711 H   0  0  0  0  0  0  0  0  0  0  0  0
   -1.8645    0.9850    1.6792 C   0  0  1  0  0  0  0  0  0  0  0  0
   -1.9417    0.3843    2.6030 H   0  0  0  0  0  0  0  0  0  0  0  0
   -3.1805    1.5345    1.1436 C   0  0  0  0  0  0  0  0  0  0  0  0
   -3.0161    2.0052   -0.1280 C   0  0  0  0  0  0  0  0  0  0  0  0
   -4.4028    1.5732    2.0023 C   0  0  0  0  0  0  0  0  0  0  0  0
   -4.6915    0.5553    2.3425 H   0  0  0  0  0  0  0  0  0  0  0  0
   -5.2714    2.0111    1.4761 H   0  0  0  0  0  0  0  0  0  0  0  0
   -4.2265    2.1699    2.9234 H   0  0  0  0  0  0  0  0  0  0  0  0
   -4.0166    2.6520   -1.0290 C   0  0  0  0  0  0  0  0  0  0  0  0
   -4.1270    2.0703   -1.9694 H   0  0  0  0  0  0  0  0  0  0  0  0
   -3.6945    3.6728   -1.3289 H   0  0  0  0  0  0  0  0  0  0  0  0
   -5.0147    2.7356   -0.5600 H   0  0  0  0  0  0  0  0  0  0  0  0
   -2.3425   -1.1000   -0.4529 C   0  0  0  0  0  0  0  0  0  0  0  0
   -3.3571   -1.6242    0.3751 C   0  0  0  0  0  0  0  0  0  0  0  0
   -3.4932   -1.2453    1.3984 H   0  0  0  0  0  0  0  0  0  0  0  0
   -4.1967   -2.6417   -0.1031 C   0  0  0  0  0  0  0  0  0  0  0  0
   -4.9856   -3.0488    0.5468 H   0  0  0  0  0  0  0  0  0  0  0  0
   -4.0314   -3.1363   -1.4066 C   0  0  0  0  0  0  0  0  0  0  0  0
   -4.6928   -3.9323   -1.7801 H   0  0  0  0  0  0  0  0  0  0  0  0
   -3.0213   -2.6150   -2.2325 C   0  0  0  0  0  0  0  0  0  0  0  0
   -2.8924   -2.9997   -3.2554 H   0  0  0  0  0  0  0  0  0  0  0  0
   -2.1702   -1.6057   -1.7597 C   0  0  0  0  0  0  0  0  0  0  0  0
   -1.3619   -1.2069   -2.3934 H   0  0  0  0  0  0  0  0  0  0  0  0
    0.7805    2.6751   -0.1127 C   0  0  1  0  0  3  0  0  0  0  0  0
    0.6884    4.9262   -1.2001 C   0  0  0  0  0  0  0  0  0  0  0  0
    1.4185    5.7426   -1.0292 H   0  0  0  0  0  0  0  0  0  0  0  0
   -0.1934    5.1214   -0.5686 H   0  0  0  0  0  0  0  0  0  0  0  0
    0.3779    4.9545   -2.2657 H   0  0  0  0  0  0  0  0  0  0  0  0
    2.6353    3.4184   -1.4655 C   0  0  0  0  0  0  0  0  0  0  0  0
    2.7237    4.0216   -2.3876 H   0  0  0  0  0  0  0  0  0  0  0  0
    2.7431    2.3468   -1.7118 H   0  0  0  0  0  0  0  0  0  0  0  0
    3.4399    3.7185   -0.7618 H   0  0  0  0  0  0  0  0  0  0  0  0
  1 23  1  6  0  0  0
  1 11  1  0  0  0  0
  3 34  1  0  0  0  0
  4  5  1  6  0  0  0
  4 14  1  0  0  0  0
  4  1  1  0  0  0  0
  4  6  1  0  0  0  0
  6  7  1  6  0  0  0
  6  8  1  0  0  0  0
  8  9  1  0  0  0  0
  8 10  1  0  0  0  0
 11  8  1  0  0  0  0
 11 12  1  1  0  0  0
 13 11  1  0  0  0  0
 13 15  1  0  0  0  0
 14 13  2  0  0  0  0
 15 16  1  0  0  0  0
 15 18  1  0  0  0  0
 17 15  1  0  0  0  0
 19 22  1  0  0  0  0
 19 14  1  0  0  0  0
 20 19  1  0  0  0  0
 21 19  1  0  0  0  0
 23 24  1  0  0  0  0
 24 25  1  0  0  0  0
 26 24  2  0  0  0  0
 26 27  1  0  0  0  0
 28 26  1  0  0  0  0
 29 28  1  0  0  0  0
 30 32  1  0  0  0  0
 30 28  2  0  0  0  0
 31 30  1  0  0  0  0
 32 23  2  0  0  0  0
 33 32  1  0  0  0  0
 34  2  1  6  0  0  0
 34  6  1  0  0  0  0
 35 36  1  0  0  0  0
 35  3  1  0  0  0  0
 35 37  1  0  0  0  0
 38 35  1  0  0  0  0
 39  3  1  0  0  0  0
 39 42  1  0  0  0  0
 40 39  1  0  0  0  0
 41 39  1  0  0  0  0
M  END
