6
q = 0.0, confidence = 0.914

 13 13  0  0  0  0  0  0  0  0999 V2000
    0.7201   -2.4188   -1.1941 F   0  0  0  0  0  0  0  0  0  0  0  0
    2.9788   -2.6030   -2.6646 F   0  0  0  0  0  0  0  0  0  0  0  0
    5.3966   -1.9693   -1.5698 F   0  0  0  0  0  0  0  0  0  0  0  0
    5.5563   -1.1098    1.0209 F   0  0  0  0  0  0  0  0  0  0  0  0
    3.3098   -0.9216    2.5284 F   0  0  0  0  0  0  0  0  0  0  0  0
   -0.2678   -2.1194    1.2980 O   0  0  0  0  0  0  0  0  0  0  0  0
    0.8394   -1.4737    1.6062 N   0  0  0  0  0  0  0  0  0  0  0  0
    1.9445   -1.7071    0.7415 C   0  0  0  0  0  0  0  0  0  0  0  0
    1.8916   -2.1622   -0.6007 C   0  0  0  0  0  0  0  0  0  0  0  0
    3.0516   -2.2488   -1.3783 C   0  0  0  0  0  0  0  0  0  0  0  0
    4.2982   -1.9091   -0.8206 C   0  0  0  0  0  0  0  0  0  0  0  0
    4.3772   -1.4637    0.5087 C   0  0  0  0  0  0  0  0  0  0  0  0
    3.2103   -1.3607    1.2758 C   0  0  0  0  0  0  0  0  0  0  0  0
  1  9  1  0  0  0  0
  2 10  1  0  0  0  0
  3 11  1  0  0  0  0
  6  7  1  0  0  0  0
  8 13  1  0  0  0  0
  8  7  1  0  0  0  0
  9  8  2  0  0  0  0
 10 11  2  0  0  0  0
 10  9  1  0  0  0  0
 11 12  1  0  0  0  0
 12  4  1  0  0  0  0
 12 13  2  0  0  0  0
 13  5  1  0  0  0  0
M  END
