16
q = -1.0, confidence = 0.02

 17 16  0  0  1  0  0  0  0  0999 V2000
   -2.8675   -3.2839   -1.2329 C   0  0  0  0  0  0  0  0  0  0  0  0
   -2.4682   -3.3433   -2.2606 H   0  0  0  0  0  0  0  0  0  0  0  0
   -3.9749   -3.2884   -1.2583 H   0  0  0  0  0  0  0  0  0  0  0  0
   -2.5539   -4.1938   -0.6776 H   0  0  0  0  0  0  0  0  0  0  0  0
   -2.3326   -2.0589   -0.5519 C   0  0  2  0  0  3  0  0  0  0  0  0
   -2.8336   -1.6079    0.6912 C   0  0  0  0  0  0  0  0  0  0  0  0
   -2.4216   -0.3411    1.1789 C   0  0  0  0  0  0  0  0  0  0  0  0
   -3.0693    0.2775    2.3844 C   0  0  0  0  0  0  0  0  0  0  0  0
   -2.7977   -0.2929    3.2983 H   0  0  0  0  0  0  0  0  0  0  0  0
   -4.1748    0.2527    2.3138 H   0  0  0  0  0  0  0  0  0  0  0  0
   -2.7242    1.3200    2.5008 H   0  0  0  0  0  0  0  0  0  0  0  0
   -3.9035   -2.3886    1.4171 C   0  0  0  0  0  0  0  0  0  0  0  0
   -3.8100   -2.2851    2.5148 H   0  0  0  0  0  0  0  0  0  0  0  0
   -3.8463   -3.4691    1.1922 H   0  0  0  0  0  0  0  0  0  0  0  0
   -4.9275   -2.0517    1.1448 H   0  0  0  0  0  0  0  0  0  0  0  0
   -1.4013   -1.4332   -1.2078 O   0  0  0  0  0  1  0  0  0  0  0  0
   -1.4999    0.3741    0.6178 O   0  5  0  0  0  0  0  0  0  0  0  0
  1  4  1  0  0  0  0
  1  5  1  0  0  0  0
  2  1  1  0  0  0  0
  3  1  1  0  0  0  0
  5 16  1  6  0  0  0
  5  6  1  0  0  0  0
  6  7  2  0  0  0  0
  6 12  1  0  0  0  0
  7  8  1  0  0  0  0
  8 11  1  0  0  0  0
  8  9  1  0  0  0  0
 10  8  1  0  0  0  0
 12 13  1  0  0  0  0
 14 12  1  0  0  0  0
 15 12  1  0  0  0  0
 17  7  1  0  0  0  0
M  CHG  1  17  -1
M  END
