1
q = -1.0, confidence = 0.012

 19 19  0  0  0  0  0  0  0  0999 V2000
   -0.1152    2.1529    0.6937 O   0  5  0  0  0  0  0  0  0  0  0  0
    1.3930    3.8205    0.4975 O   0  0  0  0  0  0  0  0  0  0  0  0
    1.1777    0.5990   -1.1705 N   0  0  0  0  0  0  0  0  0  0  0  0
    1.0200    0.2889   -2.1366 H   0  0  0  0  0  0  0  0  0  0  0  0
    0.9066    2.7607    0.1317 C   0  0  0  0  0  0  0  0  0  0  0  0
    1.4671    2.0586   -1.1310 C   0  0  0  0  0  0  0  0  0  0  0  0
    0.9623    2.5205   -2.0032 H   0  0  0  0  0  0  0  0  0  0  0  0
    2.5551    2.2546   -1.2160 H   0  0  0  0  0  0  0  0  0  0  0  0
    2.1468   -0.2701   -0.5556 C   0  0  0  0  0  0  0  0  0  0  0  0
    2.4362   -1.5100   -1.1582 C   0  0  0  0  0  0  0  0  0  0  0  0
    1.9453   -1.7838   -2.1060 H   0  0  0  0  0  0  0  0  0  0  0  0
    3.3448   -2.3903   -0.5546 C   0  0  0  0  0  0  0  0  0  0  0  0
    3.5619   -3.3566   -1.0342 H   0  0  0  0  0  0  0  0  0  0  0  0
    3.9807   -2.0370    0.6456 C   0  0  0  0  0  0  0  0  0  0  0  0
    4.6958   -2.7264    1.1178 H   0  0  0  0  0  0  0  0  0  0  0  0
    3.7032   -0.7920    1.2329 C   0  0  0  0  0  0  0  0  0  0  0  0
    4.2009   -0.5010    2.1700 H   0  0  0  0  0  0  0  0  0  0  0  0
    2.7917    0.0944    0.6426 C   0  0  0  0  0  0  0  0  0  0  0  0
    2.5769    1.0604    1.1202 H   0  0  0  0  0  0  0  0  0  0  0  0
  3  6  1  0  0  0  0
  3  9  1  0  0  0  0
  4  3  1  0  0  0  0
  5  2  2  0  0  0  0
  5  1  1  0  0  0  0
  6  5  1  0  0  0  0
  7  6  1  0  0  0  0
  8  6  1  0  0  0  0
  9 18  1  0  0  0  0
 10  9  2  0  0  0  0
 10 12  1  0  0  0  0
 11 10  1  0  0  0  0
 12 14  2  0  0  0  0
 13 12  1  0  0  0  0
 14 15  1  0  0  0  0
 14 16  1  0  0  0  0
 16 17  1  0  0  0  0
 18 19  1  0  0  0  0
 18 16  2  0  0  0  0
M  CHG  1   1  -1
M  END
