1
q = -1.0, confidence = 0.072

 34 34  0  0  1  0  0  0  0  0999 V2000
   -0.1846    1.7441    1.1602 O   0  0  0  0  0  1  0  0  0  0  0  0
    0.6780    2.2298   -1.5748 O   0  0  0  0  0  0  0  0  0  0  0  0
    2.6558    0.7109    1.8742 F   0  0  0  0  0  0  0  0  0  0  0  0
    2.3148   -0.3173   -1.4718 F   0  0  0  0  0  0  0  0  0  0  0  0
    0.9855   -2.3270   -0.3732 F   0  0  0  0  0  0  0  0  0  0  0  0
    0.9088   -1.3766    1.6368 F   0  0  0  0  0  0  0  0  0  0  0  0
    2.5892   -3.5730    1.1362 F   0  0  0  0  0  0  0  0  0  0  0  0
    3.4684   -1.7623    2.0049 F   0  0  0  0  0  0  0  0  0  0  0  0
    3.8184   -3.3367   -1.0831 F   0  0  0  0  0  0  0  0  0  0  0  0
    5.5375   -1.4606   -1.7202 F   0  0  0  0  0  0  0  0  0  0  0  0
    5.3639   -0.2310    1.4714 F   0  0  0  0  0  0  0  0  0  0  0  0
    6.2789    0.4818   -0.3930 F   0  0  0  0  0  0  0  0  0  0  0  0
    4.6411    2.1574    0.7496 F   0  0  0  0  0  0  0  0  0  0  0  0
    4.0750    1.5398   -1.2824 F   0  0  0  0  0  0  0  0  0  0  0  0
    0.7935    2.4806    1.3565 C   0  0  2  0  0  3  0  0  0  0  0  0
    1.9848    2.4345    0.4226 C   0  0  2  0  0  0  0  0  0  0  0  0
    1.5700    2.8481   -0.9883 C   0  0  0  0  0  0  0  0  0  0  0  0
    0.8309    3.3945    2.5364 C   0  0  0  0  0  0  0  0  0  0  0  0
    2.2343    4.0437   -1.5975 C   0  0  0  0  0  0  0  0  0  0  0  0
    2.5949    0.9658    0.5082 C   0  0  2  0  0  0  0  0  0  0  0  0
    1.7411   -0.1139   -0.1995 C   0  0  2  0  0  3  0  0  0  0  0  0
    1.6379   -1.4920    0.4959 C   0  0  0  0  0  0  0  0  0  0  0  0
    2.9427   -2.2888    0.8706 C   0  0  0  0  0  0  0  0  0  0  0  0
    3.9568   -2.2969   -0.2612 C   0  0  0  0  0  0  0  0  0  0  0  0
    4.8390   -1.3274   -0.5892 C   0  0  0  0  0  0  0  0  0  0  0  0
    5.1400   -0.0311    0.1497 C   0  0  0  0  0  0  0  0  0  0  0  0
    4.0880    1.1356    0.0196 C   0  0  0  0  0  0  0  0  0  0  0  0
    2.7554    3.1254    0.8016 H   0  0  0  0  0  0  0  0  0  0  0  0
    1.0693    4.4324    2.2248 H   0  0  0  0  0  0  0  0  0  0  0  0
   -0.1312    3.3627    3.0771 H   0  0  0  0  0  0  0  0  0  0  0  0
    1.6536    3.0627    3.2055 H   0  0  0  0  0  0  0  0  0  0  0  0
    3.3325    3.8931   -1.6144 H   0  0  0  0  0  0  0  0  0  0  0  0
    1.8521    4.2161   -2.6190 H   0  0  0  0  0  0  0  0  0  0  0  0
    2.0402    4.9381   -0.9678 H   0  0  0  0  0  0  0  0  0  0  0  0
  2 17  2  0  0  0  0
  5 22  1  0  0  0  0
  9 24  1  0  0  0  0
 10 25  1  0  0  0  0
 12 26  1  0  0  0  0
 14 27  1  0  0  0  0
 15  1  1  1  0  0  0
 15 18  1  0  0  0  0
 16 20  1  0  0  0  0
 16 28  1  1  0  0  0
 16 15  1  0  0  0  0
 17 16  1  0  0  0  0
 18 30  1  0  0  0  0
 18 31  1  0  0  0  0
 19 17  1  0  0  0  0
 19 34  1  0  0  0  0
 20  3  1  1  0  0  0
 21  4  1  6  0  0  0
 21 22  1  0  0  0  0
 21 20  1  0  0  0  0
 22 23  1  0  0  0  0
 22  6  1  0  0  0  0
 23  7  1  0  0  0  0
 23  8  1  0  0  0  0
 24 23  1  0  0  0  0
 25 24  2  0  0  0  0
 25 26  1  0  0  0  0
 26 11  1  0  0  0  0
 27 26  1  0  0  0  0
 27 20  1  0  0  0  0
 27 13  1  0  0  0  0
 29 18  1  0  0  0  0
 32 19  1  0  0  0  0
 33 19  1  0  0  0  0
M  END
