1
q = -1.0, confidence = 0.0

 42 42  0  0  0  0  0  0  0  0999 V2000
   -0.2267    0.0018   -0.7238 O   0  5  0  0  0  0  0  0  0  0  0  0
    1.0976    0.0136   -0.4678 C   0  0  0  0  0  0  0  0  0  0  0  0
    1.7856   -1.2222   -0.3374 C   0  0  0  0  0  0  0  0  0  0  0  0
    3.1554   -1.1761   -0.0439 C   0  0  0  0  0  0  0  0  0  0  0  0
    3.8601    0.0364    0.1157 C   0  0  0  0  0  0  0  0  0  0  0  0
    3.1404    1.2353   -0.0433 C   0  0  0  0  0  0  0  0  0  0  0  0
    1.7654    1.2564   -0.3366 C   0  0  0  0  0  0  0  0  0  0  0  0
    1.0334   -2.5216   -0.5737 C   0  0  0  0  0  0  0  0  0  0  0  0
    0.9148   -2.7979   -2.0845 C   0  0  0  0  0  0  0  0  0  0  0  0
    1.6186   -3.7238    0.1737 C   0  0  0  0  0  0  0  0  0  0  0  0
    5.3618    0.0055    0.4506 C   0  0  0  0  0  0  0  0  0  0  0  0
    6.1201   -0.7375   -0.6730 C   0  0  0  0  0  0  0  0  0  0  0  0
    5.9569    1.4178    0.5845 C   0  0  0  0  0  0  0  0  0  0  0  0
    5.5678   -0.7380    1.7903 C   0  0  0  0  0  0  0  0  0  0  0  0
    0.9939    2.5451   -0.5690 C   0  0  0  0  0  0  0  0  0  0  0  0
    0.8818    2.8318   -2.0783 C   0  0  0  0  0  0  0  0  0  0  0  0
    1.5531    3.7508    0.1930 C   0  0  0  0  0  0  0  0  0  0  0  0
    3.6947   -2.1283    0.0653 H   0  0  0  0  0  0  0  0  0  0  0  0
    3.6579    2.1968    0.0651 H   0  0  0  0  0  0  0  0  0  0  0  0
   -0.0017   -2.3647   -0.2052 H   0  0  0  0  0  0  0  0  0  0  0  0
    0.4206   -1.9542   -2.6034 H   0  0  0  0  0  0  0  0  0  0  0  0
    0.3062   -3.7065   -2.2695 H   0  0  0  0  0  0  0  0  0  0  0  0
    1.9179   -2.9482   -2.5351 H   0  0  0  0  0  0  0  0  0  0  0  0
    2.6140   -4.0145   -0.2220 H   0  0  0  0  0  0  0  0  0  0  0  0
    0.9560   -4.6051    0.0594 H   0  0  0  0  0  0  0  0  0  0  0  0
    1.7342   -3.5191    1.2580 H   0  0  0  0  0  0  0  0  0  0  0  0
    5.7624   -1.7794   -0.7915 H   0  0  0  0  0  0  0  0  0  0  0  0
    7.2063   -0.7773   -0.4485 H   0  0  0  0  0  0  0  0  0  0  0  0
    5.9869   -0.2232   -1.6462 H   0  0  0  0  0  0  0  0  0  0  0  0
    5.8628    1.9958   -0.3568 H   0  0  0  0  0  0  0  0  0  0  0  0
    7.0365    1.3494    0.8273 H   0  0  0  0  0  0  0  0  0  0  0  0
    5.4686    1.9960    1.3947 H   0  0  0  0  0  0  0  0  0  0  0  0
    5.0342   -0.2222    2.6142 H   0  0  0  0  0  0  0  0  0  0  0  0
    6.6460   -0.7804    2.0502 H   0  0  0  0  0  0  0  0  0  0  0  0
    5.1912   -1.7791    1.7447 H   0  0  0  0  0  0  0  0  0  0  0  0
   -0.0415    2.3686   -0.2100 H   0  0  0  0  0  0  0  0  0  0  0  0
    1.8855    3.0011   -2.5208 H   0  0  0  0  0  0  0  0  0  0  0  0
    0.2607    3.7324   -2.2605 H   0  0  0  0  0  0  0  0  0  0  0  0
    0.4044    1.9846   -2.6070 H   0  0  0  0  0  0  0  0  0  0  0  0
    1.6636    3.5389    1.2764 H   0  0  0  0  0  0  0  0  0  0  0  0
    0.8767    4.6219    0.0807 H   0  0  0  0  0  0  0  0  0  0  0  0
    2.5467    4.0614   -0.1918 H   0  0  0  0  0  0  0  0  0  0  0  0
  1  2  1  0  0  0  0
  2  3  2  0  0  0  0
  2  7  1  0  0  0  0
  3  4  1  0  0  0  0
  4 18  1  0  0  0  0
  4  5  2  0  0  0  0
  5 11  1  0  0  0  0
  6 19  1  0  0  0  0
  6  5  1  0  0  0  0
  7  6  2  0  0  0  0
  8  3  1  0  0  0  0
  8 20  1  0  0  0  0
  8 10  1  0  0  0  0
  9  8  1  0  0  0  0
 10 26  1  0  0  0  0
 11 13  1  0  0  0  0
 11 14  1  0  0  0  0
 12 28  1  0  0  0  0
 12 11  1  0  0  0  0
 13 31  1  0  0  0  0
 13 32  1  0  0  0  0
 14 34  1  0  0  0  0
 14 33  1  0  0  0  0
 15  7  1  0  0  0  0
 15 36  1  0  0  0  0
 15 17  1  0  0  0  0
 16 15  1  0  0  0  0
 17 40  1  0  0  0  0
 21  9  1  0  0  0  0
 22  9  1  0  0  0  0
 23  9  1  0  0  0  0
 24 10  1  0  0  0  0
 25 10  1  0  0  0  0
 27 12  1  0  0  0  0
 29 12  1  0  0  0  0
 30 13  1  0  0  0  0
 35 14  1  0  0  0  0
 37 16  1  0  0  0  0
 38 16  1  0  0  0  0
 39 16  1  0  0  0  0
 41 17  1  0  0  0  0
 42 17  1  0  0  0  0
M  CHG  1   1  -1
M  END
