22
q = -1.0, confidence = 0.004

 23 24  0  0  0  0  0  0  0  0999 V2000
   -1.9382   -2.9471    2.0245 C   0  0  0  0  0  0  0  0  0  0  0  0
   -2.1077   -1.4649    1.7335 C   0  0  0  0  0  0  0  0  0  0  0  0
   -3.2763   -0.8547    1.2726 C   0  0  0  0  0  0  0  0  0  0  0  0
   -4.5984   -1.4665    0.9740 C   0  0  0  0  0  0  0  0  0  0  0  0
   -4.6813   -2.3783    1.5959 H   0  0  0  0  0  0  0  0  0  0  0  0
   -4.6486   -1.7601   -0.0972 H   0  0  0  0  0  0  0  0  0  0  0  0
   -5.4379   -0.7778    1.1947 H   0  0  0  0  0  0  0  0  0  0  0  0
   -3.6605    1.5578    0.6273 C   0  0  0  0  0  0  0  0  0  0  0  0
   -4.5318    1.3805   -0.4652 C   0  0  0  0  0  0  0  0  0  0  0  0
   -4.5744    0.4023   -0.9677 H   0  0  0  0  0  0  0  0  0  0  0  0
   -5.2330    2.4876   -0.9647 C   0  0  0  0  0  0  0  0  0  0  0  0
   -5.9073    2.3502   -1.8240 H   0  0  0  0  0  0  0  0  0  0  0  0
   -5.0523    3.7649   -0.4089 C   0  0  0  0  0  0  0  0  0  0  0  0
   -5.6003    4.6290   -0.8147 H   0  0  0  0  0  0  0  0  0  0  0  0
   -4.1583    3.9352    0.6627 C   0  0  0  0  0  0  0  0  0  0  0  0
   -4.0054    4.9336    1.1014 H   0  0  0  0  0  0  0  0  0  0  0  0
   -3.4683    2.8359    1.1914 C   0  0  0  0  0  0  0  0  0  0  0  0
   -2.7701    2.9384    2.0333 H   0  0  0  0  0  0  0  0  0  0  0  0
   -2.9231    0.4670    1.1393 N   0  0  0  0  0  0  0  0  0  0  0  0
   -1.6112    0.6612    1.5267 N   0  0  0  0  0  0  0  0  0  0  0  0
   -1.1354   -0.5030    1.8649 N   0  0  0  0  0  0  0  0  0  0  0  0
   -0.8909   -3.5130    1.5122 O   0  5  0  0  0  0  0  0  0  0  0  0
   -2.8079   -3.5047    2.7043 O   0  0  0  0  0  0  0  0  0  0  0  0
  1 23  2  0  0  0  0
  2 21  1  0  0  0  0
  2  1  1  0  0  0  0
  3  2  2  0  0  0  0
  4  7  1  0  0  0  0
  4  3  1  0  0  0  0
  4  5  1  0  0  0  0
  6  4  1  0  0  0  0
  8 19  1  0  0  0  0
  8 17  1  0  0  0  0
  9  8  2  0  0  0  0
 10  9  1  0  0  0  0
 11  9  1  0  0  0  0
 11 13  2  0  0  0  0
 12 11  1  0  0  0  0
 13 15  1  0  0  0  0
 14 13  1  0  0  0  0
 15 16  1  0  0  0  0
 15 17  2  0  0  0  0
 17 18  1  0  0  0  0
 19  3  1  0  0  0  0
 19 20  1  0  0  0  0
 20 21  2  0  0  0  0
 22  1  1  0  0  0  0
M  CHG  1  22  -1
M  END
