8
q = 0.0, confidence = 0.974

 64 66  0  0  1  0  0  0  0  0999 V2000
    0.0816    1.9774   -0.5691 N   0  0  0  0  0  0  0  0  0  0  0  0
   -3.4579    2.6590    0.1318 N   0  0  0  0  0  0  0  0  0  0  0  0
   -3.6149    3.1272   -0.7638 H   0  0  0  0  0  0  0  0  0  0  0  0
   -0.9236   -1.1477   -0.9708 N   0  0  0  0  0  0  0  0  0  0  0  0
    0.0388   -1.3530   -0.6280 H   0  0  0  0  0  0  0  0  0  0  0  0
    3.4807    1.4298   -0.4761 N   0  0  0  0  0  0  0  0  0  0  0  0
    3.5003    1.6125   -1.4815 H   0  0  0  0  0  0  0  0  0  0  0  0
   -1.9577    1.5159    1.3932 O   0  0  0  0  0  1  0  0  0  0  0  0
   -2.2806    0.4639   -1.8814 O   0  0  0  0  0  0  0  0  0  0  0  0
    2.2454    1.5783    1.4393 O   0  0  0  0  0  0  0  0  0  0  0  0
   -1.1057    2.8104   -0.5027 C   0  0  0  0  0  0  0  0  0  0  0  0
   -1.5391    3.0234   -1.5088 H   0  0  0  0  0  0  0  0  0  0  0  0
   -0.8287    3.7828   -0.0433 H   0  0  0  0  0  0  0  0  0  0  0  0
   -2.2066    2.2359    0.4056 C   0  0  2  0  0  3  0  0  0  0  0  0
   -4.6279    2.2567    0.8991 C   0  0  0  0  0  0  0  0  0  0  0  0
   -5.0431    3.1320    1.4446 H   0  0  0  0  0  0  0  0  0  0  0  0
   -4.2550    1.5476    1.6674 H   0  0  0  0  0  0  0  0  0  0  0  0
   -5.7113    1.6191    0.0526 C   0  0  0  0  0  0  0  0  0  0  0  0
   -5.3867    0.7383   -0.9998 C   0  0  0  0  0  0  0  0  0  0  0  0
   -4.3322    0.5351   -1.2504 H   0  0  0  0  0  0  0  0  0  0  0  0
   -6.4092    0.1276   -1.7423 C   0  0  0  0  0  0  0  0  0  0  0  0
   -6.1445   -0.5560   -2.5637 H   0  0  0  0  0  0  0  0  0  0  0  0
   -7.7577    0.3805   -1.4444 C   0  0  0  0  0  0  0  0  0  0  0  0
   -8.5552   -0.1025   -2.0294 H   0  0  0  0  0  0  0  0  0  0  0  0
   -8.0842    1.2587   -0.3991 C   0  0  0  0  0  0  0  0  0  0  0  0
   -9.1382    1.4696   -0.1620 H   0  0  0  0  0  0  0  0  0  0  0  0
   -7.0655    1.8777    0.3404 C   0  0  0  0  0  0  0  0  0  0  0  0
   -7.3250    2.5728    1.1554 H   0  0  0  0  0  0  0  0  0  0  0  0
    0.0647    0.9719   -1.6421 C   0  0  0  0  0  0  0  0  0  0  0  0
    0.9976    0.3820   -1.5679 H   0  0  0  0  0  0  0  0  0  0  0  0
    0.0193    1.4598   -2.6476 H   0  0  0  0  0  0  0  0  0  0  0  0
   -1.1617    0.0607   -1.5233 C   0  0  0  0  0  0  0  0  0  0  0  0
   -2.0025   -2.0866   -0.6753 C   0  0  0  0  0  0  0  0  0  0  0  0
   -2.5645   -1.7322    0.2197 H   0  0  0  0  0  0  0  0  0  0  0  0
   -2.7201   -2.0689   -1.5201 H   0  0  0  0  0  0  0  0  0  0  0  0
   -1.4602   -3.4779   -0.4408 C   0  0  0  0  0  0  0  0  0  0  0  0
   -0.6593   -3.7418    0.6895 C   0  0  0  0  0  0  0  0  0  0  0  0
   -0.4427   -2.9393    1.4134 H   0  0  0  0  0  0  0  0  0  0  0  0
   -0.1094   -5.0155    0.8905 C   0  0  0  0  0  0  0  0  0  0  0  0
    0.5278   -5.1975    1.7690 H   0  0  0  0  0  0  0  0  0  0  0  0
   -0.3676   -6.0478   -0.0263 C   0  0  0  0  0  0  0  0  0  0  0  0
    0.0615   -7.0488    0.1333 H   0  0  0  0  0  0  0  0  0  0  0  0
   -1.1727   -5.7973   -1.1480 C   0  0  0  0  0  0  0  0  0  0  0  0
   -1.3790   -6.6015   -1.8708 H   0  0  0  0  0  0  0  0  0  0  0  0
   -1.7095   -4.5170   -1.3563 C   0  0  0  0  0  0  0  0  0  0  0  0
   -2.3305   -4.3181   -2.2443 H   0  0  0  0  0  0  0  0  0  0  0  0
    1.3613    2.6821   -0.5137 C   0  0  0  0  0  0  0  0  0  0  0  0
    1.2309    3.6083    0.0794 H   0  0  0  0  0  0  0  0  0  0  0  0
    1.7231    2.9789   -1.5309 H   0  0  0  0  0  0  0  0  0  0  0  0
    2.4079    1.8461    0.2414 C   0  0  0  0  0  0  0  0  0  0  0  0
    4.4651    0.5012    0.0635 C   0  0  0  0  0  0  0  0  0  0  0  0
    4.1361   -0.5446   -0.1220 H   0  0  0  0  0  0  0  0  0  0  0  0
    4.4395    0.6318    1.1661 H   0  0  0  0  0  0  0  0  0  0  0  0
    5.8509    0.7371   -0.4888 C   0  0  0  0  0  0  0  0  0  0  0  0
    6.3528    2.0404   -0.6808 C   0  0  0  0  0  0  0  0  0  0  0  0
    5.7136    2.9049   -0.4413 H   0  0  0  0  0  0  0  0  0  0  0  0
    7.6521    2.2417   -1.1691 C   0  0  0  0  0  0  0  0  0  0  0  0
    8.0301    3.2656   -1.3130 H   0  0  0  0  0  0  0  0  0  0  0  0
    8.4715    1.1411   -1.4679 C   0  0  0  0  0  0  0  0  0  0  0  0
    9.4914    1.2984   -1.8503 H   0  0  0  0  0  0  0  0  0  0  0  0
    7.9811   -0.1605   -1.2783 C   0  0  0  0  0  0  0  0  0  0  0  0
    8.6153   -1.0288   -1.5135 H   0  0  0  0  0  0  0  0  0  0  0  0
    6.6784   -0.3601   -0.7973 C   0  0  0  0  0  0  0  0  0  0  0  0
    6.2906   -1.3811   -0.6547 H   0  0  0  0  0  0  0  0  0  0  0  0
  1 47  1  0  0  0  0
  1 11  1  0  0  0  0
  2 14  1  0  0  0  0
  2 15  1  0  0  0  0
  3  2  1  0  0  0  0
  4 33  1  0  0  0  0
  4  5  1  0  0  0  0
  6 51  1  0  0  0  0
  6 50  1  0  0  0  0
  7  6  1  0  0  0  0
  9 32  2  0  0  0  0
 11 13  1  0  0  0  0
 11 14  1  0  0  0  0
 12 11  1  0  0  0  0
 14  8  1  1  0  0  0
 15 16  1  0  0  0  0
 15 17  1  0  0  0  0
 18 27  1  0  0  0  0
 18 15  1  0  0  0  0
 19 18  2  0  0  0  0
 20 19  1  0  0  0  0
 21 23  2  0  0  0  0
 21 19  1  0  0  0  0
 22 21  1  0  0  0  0
 23 25  1  0  0  0  0
 24 23  1  0  0  0  0
 25 26  1  0  0  0  0
 25 27  2  0  0  0  0
 27 28  1  0  0  0  0
 29 30  1  0  0  0  0
 29 32  1  0  0  0  0
 29  1  1  0  0  0  0
 31 29  1  0  0  0  0
 32  4  1  0  0  0  0
 33 36  1  0  0  0  0
 33 34  1  0  0  0  0
 35 33  1  0  0  0  0
 36 37  1  0  0  0  0
 37 39  2  0  0  0  0
 37 38  1  0  0  0  0
 39 40  1  0  0  0  0
 41 42  1  0  0  0  0
 41 39  1  0  0  0  0
 43 41  2  0  0  0  0
 44 43  1  0  0  0  0
 45 43  1  0  0  0  0
 45 36  2  0  0  0  0
 46 45  1  0  0  0  0
 47 48  1  0  0  0  0
 47 50  1  0  0  0  0
 49 47  1  0  0  0  0
 50 10  2  0  0  0  0
 51 53  1  0  0  0  0
 52 51  1  0  0  0  0
 54 51  1  0  0  0  0
 55 54  1  0  0  0  0
 55 56  1  0  0  0  0
 57 55  2  0  0  0  0
 58 57  1  0  0  0  0
 59 61  2  0  0  0  0
 59 57  1  0  0  0  0
 60 59  1  0  0  0  0
 61 63  1  0  0  0  0
 62 61  1  0  0  0  0
 63 64  1  0  0  0  0
 63 54  2  0  0  0  0
M  END
