2
q = -1.0, confidence = 0.008

 46 48  0  0  0  0  0  0  0  0999 V2000
   -0.6363   -0.0329    0.2146 P   0  0  1  0  0  0  0  0  0  0  0  0
    0.1585   -2.3286   -1.3690 O   0  5  0  0  0  0  0  0  0  0  0  0
   -3.6200    0.2726   -0.1721 O   0  0  0  0  0  0  0  0  0  0  0  0
    0.4416    1.9941    2.0015 O   0  0  0  0  0  0  0  0  0  0  0  0
   -1.8361    1.5481   -2.1028 O   0  0  0  0  0  0  0  0  0  0  0  0
   -1.7538   -0.9853   -0.8317 C   0  0  0  0  0  0  0  0  0  0  0  0
   -1.1276   -2.0692   -1.5071 C   0  0  0  0  0  0  0  0  0  0  0  0
   -1.9463   -2.9079   -2.3205 C   0  0  0  0  0  0  0  0  0  0  0  0
   -3.3152   -2.6662   -2.4080 C   0  0  0  0  0  0  0  0  0  0  0  0
   -3.9440   -1.6087   -1.7116 C   0  0  0  0  0  0  0  0  0  0  0  0
   -3.1501   -0.7742   -0.9090 C   0  0  0  0  0  0  0  0  0  0  0  0
   -4.9944    0.5843   -0.2394 C   0  0  0  0  0  0  0  0  0  0  0  0
   -0.7458    1.7834   -0.0244 C   0  0  0  0  0  0  0  0  0  0  0  0
   -1.2670    2.3757   -1.2065 C   0  0  0  0  0  0  0  0  0  0  0  0
   -1.1912    3.7733   -1.3964 C   0  0  0  0  0  0  0  0  0  0  0  0
   -0.6212    4.5793   -0.4066 C   0  0  0  0  0  0  0  0  0  0  0  0
   -0.0946    4.0256    0.7679 C   0  0  0  0  0  0  0  0  0  0  0  0
   -0.1318    2.6282    0.9351 C   0  0  0  0  0  0  0  0  0  0  0  0
    0.8676    2.7610    3.1115 C   0  0  0  0  0  0  0  0  0  0  0  0
   -1.9724    1.9541   -3.4501 C   0  0  0  0  0  0  0  0  0  0  0  0
   -1.3564   -0.3489    1.8908 C   0  0  0  0  0  0  0  0  0  0  0  0
   -1.2635   -1.6678    2.3757 C   0  0  0  0  0  0  0  0  0  0  0  0
   -1.8497   -2.0206    3.6004 C   0  0  0  0  0  0  0  0  0  0  0  0
   -2.5467   -1.0576    4.3476 C   0  0  0  0  0  0  0  0  0  0  0  0
   -2.6676    0.2515    3.8533 C   0  0  0  0  0  0  0  0  0  0  0  0
   -2.0798    0.6053    2.6295 C   0  0  0  0  0  0  0  0  0  0  0  0
   -1.4694   -3.7367   -2.8624 H   0  0  0  0  0  0  0  0  0  0  0  0
   -3.9351   -3.3216   -3.0403 H   0  0  0  0  0  0  0  0  0  0  0  0
   -5.0261   -1.4536   -1.8055 H   0  0  0  0  0  0  0  0  0  0  0  0
   -5.3043    0.8549   -1.2740 H   0  0  0  0  0  0  0  0  0  0  0  0
   -5.6304   -0.2585    0.1135 H   0  0  0  0  0  0  0  0  0  0  0  0
   -5.1510    1.4552    0.4244 H   0  0  0  0  0  0  0  0  0  0  0  0
   -1.5872    4.2256   -2.3143 H   0  0  0  0  0  0  0  0  0  0  0  0
   -0.5760    5.6688   -0.5560 H   0  0  0  0  0  0  0  0  0  0  0  0
    0.3727    4.6717    1.5211 H   0  0  0  0  0  0  0  0  0  0  0  0
    1.7268    3.4205    2.8559 H   0  0  0  0  0  0  0  0  0  0  0  0
    0.0417    3.3849    3.5182 H   0  0  0  0  0  0  0  0  0  0  0  0
    1.1854    2.0363    3.8841 H   0  0  0  0  0  0  0  0  0  0  0  0
   -2.3062    1.0563   -4.0022 H   0  0  0  0  0  0  0  0  0  0  0  0
   -2.7323    2.7587   -3.5727 H   0  0  0  0  0  0  0  0  0  0  0  0
   -0.9972    2.2926   -3.8613 H   0  0  0  0  0  0  0  0  0  0  0  0
   -0.7471   -2.4262    1.7683 H   0  0  0  0  0  0  0  0  0  0  0  0
   -1.7696   -3.0555    3.9675 H   0  0  0  0  0  0  0  0  0  0  0  0
   -3.0082   -1.3307    5.3089 H   0  0  0  0  0  0  0  0  0  0  0  0
   -3.2340    1.0048    4.4229 H   0  0  0  0  0  0  0  0  0  0  0  0
   -2.2019    1.6236    2.2328 H   0  0  0  0  0  0  0  0  0  0  0  0
  1  6  1  6  0  0  0
  1 21  1  0  0  0  0
  4 19  1  0  0  0  0
  5 14  1  0  0  0  0
  7  2  1  0  0  0  0
  7  6  2  0  0  0  0
  8  7  1  0  0  0  0
  9  8  2  0  0  0  0
  9 10  1  0  0  0  0
 10 11  2  0  0  0  0
 11  6  1  0  0  0  0
 11  3  1  0  0  0  0
 12  3  1  0  0  0  0
 12 31  1  0  0  0  0
 12 32  1  0  0  0  0
 13  1  1  0  0  0  0
 13 18  1  0  0  0  0
 14 13  2  0  0  0  0
 15 14  1  0  0  0  0
 15 16  2  0  0  0  0
 16 17  1  0  0  0  0
 17 18  2  0  0  0  0
 17 35  1  0  0  0  0
 18  4  1  0  0  0  0
 19 37  1  0  0  0  0
 19 38  1  0  0  0  0
 20  5  1  0  0  0  0
 21 22  2  0  0  0  0
 21 26  1  0  0  0  0
 22 23  1  0  0  0  0
 23 43  1  0  0  0  0
 23 24  2  0  0  0  0
 24 44  1  0  0  0  0
 25 24  1  0  0  0  0
 25 45  1  0  0  0  0
 26 25  2  0  0  0  0
 27  8  1  0  0  0  0
 28  9  1  0  0  0  0
 29 10  1  0  0  0  0
 30 12  1  0  0  0  0
 33 15  1  0  0  0  0
 34 16  1  0  0  0  0
 36 19  1  0  0  0  0
 39 20  1  0  0  0  0
 40 20  1  0  0  0  0
 41 20  1  0  0  0  0
 42 22  1  0  0  0  0
 46 26  1  0  0  0  0
M  CHG  1   2  -1
M  END
