1
q = -1.0, confidence = 0.002

 10  9  0  0  0  0  0  0  0  0999 V2000
   -1.1731    0.9859   -0.1011 O   0  0  0  0  0  1  0  0  0  0  0  0
   -1.2965    2.3801   -0.0156 C   0  0  0  0  0  0  0  0  0  0  0  0
   -0.7753    2.7922    0.8853 H   0  0  0  0  0  0  0  0  0  0  0  0
   -0.7645    2.8293   -0.8928 H   0  0  0  0  0  0  0  0  0  0  0  0
   -2.6997    2.8006    0.0071 C   0  0  0  0  0  0  0  0  0  0  0  0
   -3.8835    3.1140    0.0279 C   0  0  0  0  0  0  0  0  0  0  0  0
   -5.2976    3.4606    0.0362 C   0  0  0  0  0  0  0  0  0  0  0  0
   -5.6331    3.8066    1.0363 H   0  0  0  0  0  0  0  0  0  0  0  0
   -5.9174    2.5808   -0.2390 H   0  0  0  0  0  0  0  0  0  0  0  0
   -5.5251    4.2665   -0.6928 H   0  0  0  0  0  0  0  0  0  0  0  0
  1  2  1  0  0  0  0
  2  5  1  0  0  0  0
  2  3  1  0  0  0  0
  4  2  1  0  0  0  0
  5  6  3  0  0  0  0
  6  7  1  0  0  0  0
  7  8  1  0  0  0  0
  9  7  1  0  0  0  0
 10  7  1  0  0  0  0
M  END
