1
q = -1.0, confidence = 0.002

 37 39  0  0  1  0  0  0  0  0999 V2000
    1.7339   -0.6336   -0.9851 O   0  0  0  0  0  1  0  0  0  0  0  0
    3.5965   -0.3390    1.4633 O   0  0  0  0  0  0  0  0  0  0  0  0
    5.2560    0.1729   -1.0365 O   0  0  0  0  0  0  0  0  0  0  0  0
    5.7346   -1.1141    0.8063 O   0  0  0  0  0  0  0  0  0  0  0  0
    1.3232    3.0992    1.7762 O   0  0  0  0  0  0  0  0  0  0  0  0
    0.6268    1.4327    0.3728 O   0  0  0  0  0  0  0  0  0  0  0  0
    2.8614    0.1752   -0.7498 C   0  0  1  0  0  0  0  0  0  0  0  0
    2.9205    0.6750    0.7112 C   0  0  1  0  0  0  0  0  0  0  0  0
    4.3555   -1.1960    0.6055 C   0  0  2  0  0  0  0  0  0  0  0  0
    4.1357   -0.6720   -0.8278 C   0  0  2  0  0  0  0  0  0  0  0  0
    6.2847   -0.1180   -0.0736 C   0  0  0  0  0  0  0  0  0  0  0  0
    7.4954   -0.7242   -0.7749 C   0  0  0  0  0  0  0  0  0  0  0  0
    6.6100    1.1572    0.7004 C   0  0  0  0  0  0  0  0  0  0  0  0
    1.5324    0.8565    1.3280 C   0  0  1  0  0  0  0  0  0  0  0  0
    1.4683    1.8689    2.4689 C   0  0  0  0  0  0  0  0  0  0  0  0
    0.4538    2.8706    0.6761 C   0  0  0  0  0  0  0  0  0  0  0  0
   -1.0104    3.0997    1.0364 C   0  0  0  0  0  0  0  0  0  0  0  0
    0.9277    3.7077   -0.4979 C   0  0  0  0  0  0  0  0  0  0  0  0
    2.9063    1.0173   -1.4754 H   0  0  0  0  0  0  0  0  0  0  0  0
    3.4864    1.6351    0.7487 H   0  0  0  0  0  0  0  0  0  0  0  0
    4.0513   -2.2428    0.8072 H   0  0  0  0  0  0  0  0  0  0  0  0
    4.0517   -1.4689   -1.5992 H   0  0  0  0  0  0  0  0  0  0  0  0
    7.1879   -1.6272   -1.3359 H   0  0  0  0  0  0  0  0  0  0  0  0
    8.2661   -1.0115   -0.0337 H   0  0  0  0  0  0  0  0  0  0  0  0
    7.9329    0.0064   -1.4820 H   0  0  0  0  0  0  0  0  0  0  0  0
    5.7133    1.5043    1.2470 H   0  0  0  0  0  0  0  0  0  0  0  0
    6.9416    1.9528    0.0055 H   0  0  0  0  0  0  0  0  0  0  0  0
    7.4154    0.9646    1.4350 H   0  0  0  0  0  0  0  0  0  0  0  0
    1.1542   -0.1456    1.6065 H   0  0  0  0  0  0  0  0  0  0  0  0
    2.3958    1.9040    3.0714 H   0  0  0  0  0  0  0  0  0  0  0  0
    0.6035    1.6615    3.1428 H   0  0  0  0  0  0  0  0  0  0  0  0
   -1.3041    2.5033    1.9218 H   0  0  0  0  0  0  0  0  0  0  0  0
   -1.6497    2.7876    0.1900 H   0  0  0  0  0  0  0  0  0  0  0  0
   -1.1762    4.1715    1.2573 H   0  0  0  0  0  0  0  0  0  0  0  0
    1.9875    3.4803   -0.7174 H   0  0  0  0  0  0  0  0  0  0  0  0
    0.8384    4.7815   -0.2447 H   0  0  0  0  0  0  0  0  0  0  0  0
    0.3262    3.4885   -1.3987 H   0  0  0  0  0  0  0  0  0  0  0  0
  1  7  1  0  0  0  0
  3 10  1  0  0  0  0
  3 11  1  0  0  0  0
  5 15  1  0  0  0  0
  6 16  1  0  0  0  0
  6 14  1  0  0  0  0
  7 19  1  6  0  0  0
  7  8  1  0  0  0  0
  8 20  1  1  0  0  0
  8 14  1  0  0  0  0
  8  2  1  0  0  0  0
  9  4  1  0  0  0  0
  9 21  1  1  0  0  0
  9  2  1  0  0  0  0
 10 22  1  6  0  0  0
 10  7  1  0  0  0  0
 10  9  1  0  0  0  0
 11 13  1  0  0  0  0
 11  4  1  0  0  0  0
 12 11  1  0  0  0  0
 12 24  1  0  0  0  0
 13 26  1  0  0  0  0
 13 28  1  0  0  0  0
 14 29  1  1  0  0  0
 14 15  1  0  0  0  0
 15 30  1  0  0  0  0
 15 31  1  0  0  0  0
 16 17  1  0  0  0  0
 16  5  1  0  0  0  0
 17 34  1  0  0  0  0
 17 32  1  0  0  0  0
 18 36  1  0  0  0  0
 18 16  1  0  0  0  0
 23 12  1  0  0  0  0
 25 12  1  0  0  0  0
 27 13  1  0  0  0  0
 33 17  1  0  0  0  0
 35 18  1  0  0  0  0
 37 18  1  0  0  0  0
M  END
