2
q = -1.0, confidence = 0.0

 29 30  0  0  0  0  0  0  0  0999 V2000
    1.5475   -2.1734    1.6212 O   0  5  0  0  0  0  0  0  0  0  0  0
    1.7577   -1.7079   -0.5612 O   0  0  0  0  0  0  0  0  0  0  0  0
    4.2813   -1.2340   -2.6465 O   0  0  0  0  0  0  0  0  0  0  0  0
    3.6214   -2.6862    0.5069 C   0  0  0  0  0  0  0  0  0  0  0  0
    4.5128   -2.2162   -0.4870 C   0  0  0  0  0  0  0  0  0  0  0  0
    5.7917   -2.7931   -0.5912 C   0  0  0  0  0  0  0  0  0  0  0  0
    6.4707   -2.4383   -1.3813 H   0  0  0  0  0  0  0  0  0  0  0  0
    6.1949   -3.7961    0.3028 C   0  0  0  0  0  0  0  0  0  0  0  0
    7.1990   -4.2380    0.2122 H   0  0  0  0  0  0  0  0  0  0  0  0
    5.3210   -4.2332    1.3125 C   0  0  0  0  0  0  0  0  0  0  0  0
    5.6385   -5.0171    2.0168 H   0  0  0  0  0  0  0  0  0  0  0  0
    4.0380   -3.6779    1.4119 C   0  0  0  0  0  0  0  0  0  0  0  0
    3.3223   -4.0102    2.1785 H   0  0  0  0  0  0  0  0  0  0  0  0
    2.2160   -2.1642    0.5629 C   0  0  0  0  0  0  0  0  0  0  0  0
    4.1627   -1.0901   -1.4342 C   0  0  0  0  0  0  0  0  0  0  0  0
    3.8517    0.2627   -0.8443 C   0  0  0  0  0  0  0  0  0  0  0  0
    3.4570    1.2936   -1.7203 C   0  0  0  0  0  0  0  0  0  0  0  0
    3.3124    1.0356   -2.7802 H   0  0  0  0  0  0  0  0  0  0  0  0
    3.2896    2.6014   -1.2540 C   0  0  0  0  0  0  0  0  0  0  0  0
    2.9927    3.3983   -1.9549 H   0  0  0  0  0  0  0  0  0  0  0  0
    3.5302    2.9289    0.0991 C   0  0  0  0  0  0  0  0  0  0  0  0
    3.8841    1.8849    0.9786 C   0  0  0  0  0  0  0  0  0  0  0  0
    4.0633    2.1119    2.0418 H   0  0  0  0  0  0  0  0  0  0  0  0
    4.0443    0.5718    0.5180 C   0  0  0  0  0  0  0  0  0  0  0  0
    4.3475   -0.2178    1.2210 H   0  0  0  0  0  0  0  0  0  0  0  0
    3.4929    4.3576    0.5763 C   0  0  0  0  0  0  0  0  0  0  0  0
    4.5186    4.7854    0.6007 H   0  0  0  0  0  0  0  0  0  0  0  0
    3.0885    4.4374    1.6053 H   0  0  0  0  0  0  0  0  0  0  0  0
    2.8836    4.9985   -0.0891 H   0  0  0  0  0  0  0  0  0  0  0  0
  2 14  2  0  0  0  0
  3 15  2  0  0  0  0
  4 14  1  0  0  0  0
  4 12  1  0  0  0  0
  5  4  2  0  0  0  0
  6  5  1  0  0  0  0
  6  8  2  0  0  0  0
  7  6  1  0  0  0  0
  8 10  1  0  0  0  0
  9  8  1  0  0  0  0
 10 12  2  0  0  0  0
 10 11  1  0  0  0  0
 12 13  1  0  0  0  0
 14  1  1  0  0  0  0
 15 16  1  0  0  0  0
 15  5  1  0  0  0  0
 16 24  1  0  0  0  0
 17 19  1  0  0  0  0
 17 16  2  0  0  0  0
 18 17  1  0  0  0  0
 19 21  2  0  0  0  0
 20 19  1  0  0  0  0
 21 26  1  0  0  0  0
 21 22  1  0  0  0  0
 22 23  1  0  0  0  0
 24 22  2  0  0  0  0
 24 25  1  0  0  0  0
 26 27  1  0  0  0  0
 26 28  1  0  0  0  0
 29 26  1  0  0  0  0
M  CHG  1   1  -1
M  END
