2
q = -1.0, confidence = 0.0

 48 49  0  0  0  0  0  0  0  0999 V2000
    0.2187   -0.9627    1.4407 P   0  0  0  0  0  0  0  0  0  0  0  0
   -0.8028    0.2586   -0.8960 O   0  0  0  0  0  1  0  0  0  0  0  0
   -1.8307    0.3140    0.0647 C   0  0  0  0  0  0  0  0  0  0  0  0
   -2.5720    1.6654   -0.0847 C   0  0  0  0  0  0  0  0  0  0  0  0
   -3.0397    2.4223    1.0041 C   0  0  0  0  0  0  0  0  0  0  0  0
   -3.7080    3.6417    0.7988 C   0  0  0  0  0  0  0  0  0  0  0  0
   -3.9233    4.1192   -0.5012 C   0  0  0  0  0  0  0  0  0  0  0  0
   -3.4696    3.3634   -1.5965 C   0  0  0  0  0  0  0  0  0  0  0  0
   -2.8043    2.1492   -1.3882 C   0  0  0  0  0  0  0  0  0  0  0  0
   -2.9014   -0.7721   -0.2251 C   0  0  0  0  0  0  0  0  0  0  0  0
   -4.0429   -0.9154    0.5904 C   0  0  0  0  0  0  0  0  0  0  0  0
   -5.0078   -1.8938    0.3124 C   0  0  0  0  0  0  0  0  0  0  0  0
   -4.8564   -2.7398   -0.7998 C   0  0  0  0  0  0  0  0  0  0  0  0
   -3.7364   -2.5884   -1.6300 C   0  0  0  0  0  0  0  0  0  0  0  0
   -2.7687   -1.6111   -1.3426 C   0  0  0  0  0  0  0  0  0  0  0  0
   -1.2726    0.1344    1.4980 C   0  0  0  0  0  0  0  0  0  0  0  0
   -0.3373   -2.7584    1.7072 C   0  0  0  0  0  0  0  0  0  0  0  0
   -0.4586   -3.5699    0.4161 C   0  0  0  0  0  0  0  0  0  0  0  0
   -1.6305   -2.8917    2.5252 C   0  0  0  0  0  0  0  0  0  0  0  0
    1.0913   -0.5474    3.0533 C   0  0  0  0  0  0  0  0  0  0  0  0
    2.4610   -1.2255    3.1293 C   0  0  0  0  0  0  0  0  0  0  0  0
    0.2848   -0.7571    4.3385 C   0  0  0  0  0  0  0  0  0  0  0  0
   -2.8741    2.0742    2.0342 H   0  0  0  0  0  0  0  0  0  0  0  0
   -4.0562    4.2238    1.6661 H   0  0  0  0  0  0  0  0  0  0  0  0
   -4.4436    5.0757   -0.6626 H   0  0  0  0  0  0  0  0  0  0  0  0
   -3.6355    3.7271   -2.6225 H   0  0  0  0  0  0  0  0  0  0  0  0
   -2.4334    1.5588   -2.2382 H   0  0  0  0  0  0  0  0  0  0  0  0
   -4.1902   -0.2408    1.4486 H   0  0  0  0  0  0  0  0  0  0  0  0
   -5.8894   -1.9925    0.9646 H   0  0  0  0  0  0  0  0  0  0  0  0
   -5.6150   -3.5060   -1.0210 H   0  0  0  0  0  0  0  0  0  0  0  0
   -3.6109   -3.2390   -2.5098 H   0  0  0  0  0  0  0  0  0  0  0  0
   -1.8806   -1.4790   -1.9720 H   0  0  0  0  0  0  0  0  0  0  0  0
   -0.8648    1.1016    1.8554 H   0  0  0  0  0  0  0  0  0  0  0  0
   -2.0315   -0.2161    2.2213 H   0  0  0  0  0  0  0  0  0  0  0  0
    0.5087   -3.1726    2.3018 H   0  0  0  0  0  0  0  0  0  0  0  0
    0.4469   -3.4975   -0.2088 H   0  0  0  0  0  0  0  0  0  0  0  0
   -0.6320   -4.6389    0.6596 H   0  0  0  0  0  0  0  0  0  0  0  0
   -1.3124   -3.2189   -0.1937 H   0  0  0  0  0  0  0  0  0  0  0  0
   -1.6219   -2.3143    3.4667 H   0  0  0  0  0  0  0  0  0  0  0  0
   -2.5060   -2.5667    1.9290 H   0  0  0  0  0  0  0  0  0  0  0  0
   -1.7910   -3.9581    2.7894 H   0  0  0  0  0  0  0  0  0  0  0  0
    1.2588    0.5426    2.9226 H   0  0  0  0  0  0  0  0  0  0  0  0
    3.0613   -1.0154    2.2231 H   0  0  0  0  0  0  0  0  0  0  0  0
    3.0251   -0.8552    4.0104 H   0  0  0  0  0  0  0  0  0  0  0  0
    2.3745   -2.3278    3.2345 H   0  0  0  0  0  0  0  0  0  0  0  0
   -0.7135   -0.2785    4.2987 H   0  0  0  0  0  0  0  0  0  0  0  0
    0.1470   -1.8314    4.5752 H   0  0  0  0  0  0  0  0  0  0  0  0
    0.8315   -0.3053    5.1929 H   0  0  0  0  0  0  0  0  0  0  0  0
  1 16  1  0  0  0  0
  1 17  1  0  0  0  0
  1 20  1  0  0  0  0
  2  3  1  0  0  0  0
  3 16  1  0  0  0  0
  4  3  1  0  0  0  0
  4  5  1  0  0  0  0
  5 23  1  0  0  0  0
  6  5  2  0  0  0  0
  6 24  1  0  0  0  0
  7  6  1  0  0  0  0
  8  9  1  0  0  0  0
  8  7  2  0  0  0  0
  9  4  2  0  0  0  0
 10  3  1  0  0  0  0
 10 11  1  0  0  0  0
 11 28  1  0  0  0  0
 12 11  2  0  0  0  0
 12 29  1  0  0  0  0
 13 12  1  0  0  0  0
 14 15  1  0  0  0  0
 14 13  2  0  0  0  0
 15 10  2  0  0  0  0
 16 33  1  0  0  0  0
 16 34  1  0  0  0  0
 17 35  1  0  0  0  0
 17 19  1  0  0  0  0
 18 37  1  0  0  0  0
 18 17  1  0  0  0  0
 19 41  1  0  0  0  0
 19 39  1  0  0  0  0
 20 21  1  0  0  0  0
 20 22  1  0  0  0  0
 21 45  1  0  0  0  0
 21 44  1  0  0  0  0
 22 47  1  0  0  0  0
 22 48  1  0  0  0  0
 25  7  1  0  0  0  0
 26  8  1  0  0  0  0
 27  9  1  0  0  0  0
 30 13  1  0  0  0  0
 31 14  1  0  0  0  0
 32 15  1  0  0  0  0
 36 18  1  0  0  0  0
 38 18  1  0  0  0  0
 40 19  1  0  0  0  0
 42 20  1  0  0  0  0
 43 21  1  0  0  0  0
 46 22  1  0  0  0  0
M  END
