1
q = -1.0, confidence = 0.002

 15 14  0  0  0  0  0  0  0  0999 V2000
    1.0706    0.6983   -0.8180 O   0  5  0  0  0  0  0  0  0  0  0  0
    1.7177    1.6801    1.1291 O   0  0  0  0  0  0  0  0  0  0  0  0
    1.6719    1.6150   -0.1337 C   0  0  0  0  0  0  0  0  0  0  0  0
    2.3672    2.6513   -0.9490 C   0  0  0  0  0  0  0  0  0  0  0  0
    2.3044    2.5378   -2.0435 H   0  0  0  0  0  0  0  0  0  0  0  0
    3.0369    3.6880   -0.3806 C   0  0  0  0  0  0  0  0  0  0  0  0
    3.0433    3.7279    0.7238 H   0  0  0  0  0  0  0  0  0  0  0  0
    3.7288    4.7301   -1.1083 C   0  0  0  0  0  0  0  0  0  0  0  0
    3.7082    4.6719   -2.2126 H   0  0  0  0  0  0  0  0  0  0  0  0
    4.3881    5.7597   -0.5162 C   0  0  0  0  0  0  0  0  0  0  0  0
    4.3939    5.7999    0.5892 H   0  0  0  0  0  0  0  0  0  0  0  0
    5.1091    6.8548   -1.2332 C   0  0  0  0  0  0  0  0  0  0  0  0
    6.1823    6.8911   -0.9428 H   0  0  0  0  0  0  0  0  0  0  0  0
    4.6912    7.8520   -0.9719 H   0  0  0  0  0  0  0  0  0  0  0  0
    5.0536    6.7363   -2.3336 H   0  0  0  0  0  0  0  0  0  0  0  0
  1  3  1  0  0  0  0
  3  2  2  0  0  0  0
  4  6  2  0  0  0  0
  4  3  1  0  0  0  0
  5  4  1  0  0  0  0
  6  7  1  0  0  0  0
  8 10  2  0  0  0  0
  8  6  1  0  0  0  0
  9  8  1  0  0  0  0
 10 11  1  0  0  0  0
 12 14  1  0  0  0  0
 12 13  1  0  0  0  0
 12 10  1  0  0  0  0
 15 12  1  0  0  0  0
M  CHG  1   1  -1
M  END
