2
q = -1.0, confidence = 0.012

 24 23  0  0  1  0  0  0  0  0999 V2000
    1.3802    0.4876   -0.9193 N   0  0  0  0  0  0  0  0  0  0  0  0
    0.8385   -0.1981    1.6023 O   0  5  0  0  0  0  0  0  0  0  0  0
    2.9783   -0.5009    2.1870 O   0  0  0  0  0  0  0  0  0  0  0  0
    2.1194   -0.3152    1.3318 C   0  0  0  0  0  0  0  0  0  0  0  0
    2.4659   -0.2611   -0.1743 C   0  0  2  0  0  0  0  0  0  0  0  0
    3.9312    0.1364   -0.5010 C   0  0  0  0  0  0  0  0  0  0  0  0
    4.8174   -1.1139   -0.3679 C   0  0  0  0  0  0  0  0  0  0  0  0
    4.5273    1.2862    0.3299 C   0  0  0  0  0  0  0  0  0  0  0  0
    1.5254    1.9511   -0.7841 C   0  0  0  0  0  0  0  0  0  0  0  0
    1.3552    0.1096   -2.3508 C   0  0  0  0  0  0  0  0  0  0  0  0
    2.3139   -1.3101   -0.5058 H   0  0  0  0  0  0  0  0  0  0  0  0
    3.9490    0.4380   -1.5734 H   0  0  0  0  0  0  0  0  0  0  0  0
    4.4770   -1.9287   -1.0391 H   0  0  0  0  0  0  0  0  0  0  0  0
    4.7789   -1.4850    0.6750 H   0  0  0  0  0  0  0  0  0  0  0  0
    5.8719   -0.8796   -0.6181 H   0  0  0  0  0  0  0  0  0  0  0  0
    3.9590    2.2318    0.2451 H   0  0  0  0  0  0  0  0  0  0  0  0
    5.5626    1.4939   -0.0094 H   0  0  0  0  0  0  0  0  0  0  0  0
    4.5582    1.0018    1.3983 H   0  0  0  0  0  0  0  0  0  0  0  0
    2.4516    2.3089   -1.2806 H   0  0  0  0  0  0  0  0  0  0  0  0
    1.5513    2.2217    0.2870 H   0  0  0  0  0  0  0  0  0  0  0  0
    0.6612    2.4450   -1.2613 H   0  0  0  0  0  0  0  0  0  0  0  0
    2.3167    0.3628   -2.8472 H   0  0  0  0  0  0  0  0  0  0  0  0
    0.5390    0.6617   -2.8525 H   0  0  0  0  0  0  0  0  0  0  0  0
    1.1543   -0.9754   -2.4206 H   0  0  0  0  0  0  0  0  0  0  0  0
  1  9  1  0  0  0  0
  1  5  1  0  0  0  0
  4  2  1  0  0  0  0
  4  3  2  0  0  0  0
  5 11  1  6  0  0  0
  5  4  1  0  0  0  0
  6  7  1  0  0  0  0
  6  5  1  0  0  0  0
  6  8  1  0  0  0  0
  7 14  1  0  0  0  0
  8 18  1  0  0  0  0
  9 20  1  0  0  0  0
 10  1  1  0  0  0  0
 12  6  1  0  0  0  0
 13  7  1  0  0  0  0
 15  7  1  0  0  0  0
 16  8  1  0  0  0  0
 17  8  1  0  0  0  0
 19  9  1  0  0  0  0
 21  9  1  0  0  0  0
 22 10  1  0  0  0  0
 23 10  1  0  0  0  0
 24 10  1  0  0  0  0
M  CHG  1   2  -1
M  END
